<?xml version="1.0" encoding="UTF-8"?>

<!-- generated on 2026-07-09 14:43:14 by Eclipse SUMO duarouter Version 1.20.0
<configuration xmlns:xsi="http://www.w3.org/2001/XMLSchema-instance" xsi:noNamespaceSchemaLocation="http://sumo.dlr.de/xsd/duarouterConfiguration.xsd">

    <input>
        <net-file value="net.net.xml"/>
        <route-files value="t.xml"/>
    </input>

    <output>
        <output-file value="rou.rou.xml"/>
        <named-routes value="true"/>
    </output>

    <report>
        <ignore-errors value="true"/>
    </report>

    <random_number>
        <seed value="11"/>
    </random_number>

</configuration>
-->

<routes xmlns:xsi="http://www.w3.org/2001/XMLSchema-instance" xsi:noNamespaceSchemaLocation="http://sumo.dlr.de/xsd/routes_file.xsd">
    <route id="r0" edges="C2B2 B2B1 B1B0"/>
    <vehicle id="0" depart="0.00" route="r0"/>
    <route id="r1" edges="B2C2 C2C1 C1B1 B1A1 A1A0 A0B0"/>
    <vehicle id="1" depart="0.85" route="r1"/>
    <route id="r2" edges="A2B2 B2B1 B1A1 A1A0 A0B0"/>
    <vehicle id="2" depart="1.70" route="r2"/>
    <route id="r3" edges="C2B2 B2C2 C2C1 C1C0"/>
    <vehicle id="3" depart="2.55" route="r3"/>
    <route id="r4" edges="C2C1 C1C0 C0B0 B0C0"/>
    <vehicle id="4" depart="3.40" route="r4"/>
    <route id="r5" edges="C0C1 C1B1 B1A1 A1A2 A2B2"/>
    <vehicle id="5" depart="4.25" route="r5"/>
    <route id="r6" edges="B0A0 A0A1 A1B1 B1C1 C1C2"/>
    <vehicle id="6" depart="5.10" route="r6"/>
    <route id="r7" edges="A2A1 A1A0 A0B0 B0C0"/>
    <vehicle id="7" depart="5.95" route="r7"/>
    <route id="r8" edges="A1A0 A0B0 B0B1 B1B2 B2C2 C2C1"/>
    <vehicle id="8" depart="6.80" route="r8"/>
    <route id="r9" edges="C0C1 C1C0 C0B0 B0A0"/>
    <vehicle id="9" depart="7.65" route="r9"/>
    <route id="r10" edges="A1A0 A0B0 B0B1 B1C1"/>
    <vehicle id="10" depart="8.50" route="r10"/>
    <route id="r11" edges="C2C1 C1B1 B1B0"/>
    <vehicle id="11" depart="9.35" route="r11"/>
    <route id="r12" edges="C0B0 B0B1 B1C1 C1C2 C2B2"/>
    <vehicle id="12" depart="10.20" route="r12"/>
    <route id="r13" edges="C1C2 C2B2 B2A2"/>
    <vehicle id="13" depart="11.05" route="r13"/>
    <route id="r14" edges="A0A1 A1A2 A2B2 B2C2 C2C1"/>
    <vehicle id="14" depart="11.90" route="r14"/>
    <route id="r15" edges="A2A1 A1A2 A2B2 B2C2"/>
    <vehicle id="15" depart="12.75" route="r15"/>
    <route id="r16" edges="B2A2 A2A1 A1B1 B1B0 B0A0"/>
    <vehicle id="16" depart="13.60" route="r16"/>
    <route id="r17" edges="A0A1 A1A2 A2B2"/>
    <vehicle id="17" depart="14.45" route="r17"/>
    <route id="r18" edges="B0B1 B1C1 C1C2"/>
    <vehicle id="18" depart="15.30" route="r18"/>
    <route id="r19" edges="A0A1 A1B1 B1C1 C1C2"/>
    <vehicle id="19" depart="16.15" route="r19"/>
    <route id="r20" edges="A0B0 B0B1 B1C1"/>
    <vehicle id="20" depart="17.00" route="r20"/>
    <route id="r21" edges="C0B0 B0B1 B1C1 C1C2"/>
    <vehicle id="21" depart="17.85" route="r21"/>
    <route id="r22" edges="C0B0 B0B1 B1B2 B2C2"/>
    <vehicle id="22" depart="18.70" route="r22"/>
    <route id="r23" edges="B0B1 B1B2 B2C2"/>
    <vehicle id="23" depart="19.55" route="r23"/>
    <route id="r24" edges="B2A2 A2A1 A1A0 A0B0 B0C0"/>
    <vehicle id="24" depart="20.40" route="r24"/>
    <route id="r25" edges="A1A0 A0B0 B0C0 C0C1"/>
    <vehicle id="25" depart="21.25" route="r25"/>
    <route id="r26" edges="A0A1 A1A2 A2B2 B2A2"/>
    <vehicle id="26" depart="22.10" route="r26"/>
    <route id="r27" edges="B2C2 C2C1 C1B1 B1B0"/>
    <vehicle id="27" depart="22.95" route="r27"/>
    <route id="r28" edges="B0A0 A0A1 A1A2 A2B2 B2C2"/>
    <vehicle id="28" depart="23.80" route="r28"/>
    <vehicle id="29" depart="24.65" route="r12"/>
    <vehicle id="30" depart="25.50" route="r7"/>
    <route id="r29" edges="B2B1 B1B0"/>
    <vehicle id="31" depart="26.35" route="r29"/>
    <route id="r30" edges="C2C1 C1B1 B1A1"/>
    <vehicle id="32" depart="27.20" route="r30"/>
    <route id="r31" edges="C1C0 C0B0 B0A0 A0A1"/>
    <vehicle id="33" depart="28.05" route="r31"/>
    <route id="r32" edges="A0A1 A1A2"/>
    <vehicle id="34" depart="28.90" route="r32"/>
    <route id="r33" edges="C1B1 B1B2 B2A2 A2A1"/>
    <vehicle id="35" depart="29.75" route="r33"/>
    <route id="r34" edges="C1C2 C2B2 B2A2 A2A1 A1A0"/>
    <vehicle id="36" depart="30.60" route="r34"/>
    <route id="r35" edges="C2B2 B2C2 C2C1 C1C0 C0B0"/>
    <vehicle id="37" depart="31.45" route="r35"/>
    <vehicle id="38" depart="32.30" route="r0"/>
    <route id="r36" edges="B2B1 B1C1 C1C0 C0B0"/>
    <vehicle id="39" depart="33.15" route="r36"/>
    <route id="r37" edges="A2A1 A1B1 B1C1 C1C2"/>
    <vehicle id="40" depart="34.00" route="r37"/>
    <vehicle id="41" depart="34.85" route="r6"/>
    <vehicle id="42" depart="35.70" route="r0"/>
    <route id="r38" edges="C2B2 B2A2 A2A1 A1A0"/>
    <vehicle id="43" depart="36.55" route="r38"/>
    <route id="r39" edges="A2B2 B2C2 C2C1 C1C0 C0B0"/>
    <vehicle id="44" depart="37.40" route="r39"/>
    <route id="r40" edges="A1B1 B1C1 C1C0"/>
    <vehicle id="45" depart="38.25" route="r40"/>
    <vehicle id="46" depart="39.10" route="r1"/>
    <route id="r41" edges="A2B2 B2B1 B1B0"/>
    <vehicle id="47" depart="39.95" route="r41"/>
    <route id="r42" edges="C2B2 B2B1 B1A1 A1A2"/>
    <vehicle id="48" depart="40.80" route="r42"/>
    <route id="r43" edges="C0C1 C1C0 C0B0 B0A0 A0A1"/>
    <vehicle id="49" depart="41.65" route="r43"/>
    <route id="r44" edges="B2C2 C2C1 C1C0 C0B0 B0A0"/>
    <vehicle id="50" depart="42.50" route="r44"/>
    <route id="r45" edges="B0B1 B1B2 B2A2"/>
    <vehicle id="51" depart="43.35" route="r45"/>
    <route id="r46" edges="C1C0 C0B0 B0B1 B1B2 B2A2"/>
    <vehicle id="52" depart="44.20" route="r46"/>
    <route id="r47" edges="C1C0 C0B0 B0B1 B1B2 B2A2 A2A1"/>
    <vehicle id="53" depart="45.05" route="r47"/>
    <route id="r48" edges="C1C2 C2B2 B2B1 B1B0 B0A0"/>
    <vehicle id="54" depart="45.90" route="r48"/>
    <route id="r49" edges="B0A0 A0A1 A1B1 B1C1 C1C2 C2B2"/>
    <vehicle id="55" depart="46.75" route="r49"/>
    <route id="r50" edges="A2A1 A1A2 A2B2 B2C2 C2C1"/>
    <vehicle id="56" depart="47.60" route="r50"/>
    <route id="r51" edges="C1C2 C2B2 B2B1 B1A1 A1A2"/>
    <vehicle id="57" depart="48.45" route="r51"/>
    <route id="r52" edges="A2A1 A1B1 B1C1 C1C0 C0B0"/>
    <vehicle id="58" depart="49.30" route="r52"/>
    <route id="r53" edges="A2B2 B2B1 B1A1 A1A0"/>
    <vehicle id="59" depart="50.15" route="r53"/>
    <route id="r54" edges="C1B1 B1A1"/>
    <vehicle id="60" depart="51.00" route="r54"/>
    <route id="r55" edges="C0C1 C1B1 B1A1 A1A2"/>
    <vehicle id="61" depart="51.85" route="r55"/>
    <route id="r56" edges="B0C0 C0C1 C1B1 B1B2 B2C2"/>
    <vehicle id="62" depart="52.70" route="r56"/>
    <route id="r57" edges="C2C1 C1B1 B1A1 A1A0"/>
    <vehicle id="63" depart="53.55" route="r57"/>
    <vehicle id="64" depart="54.40" route="r38"/>
    <route id="r58" edges="A0B0 B0C0 C0C1 C1C2 C2B2"/>
    <vehicle id="65" depart="55.25" route="r58"/>
    <route id="r59" edges="B2C2 C2C1 C1C0"/>
    <vehicle id="66" depart="56.10" route="r59"/>
    <vehicle id="67" depart="56.95" route="r59"/>
    <route id="r60" edges="B2B1 B1B0 B0C0"/>
    <vehicle id="68" depart="57.80" route="r60"/>
    <route id="r61" edges="A2B2 B2C2 C2C1 C1C2"/>
    <vehicle id="69" depart="58.65" route="r61"/>
    <route id="r62" edges="C2C1 C1C0 C0B0 B0A0 A0A1"/>
    <vehicle id="70" depart="59.50" route="r62"/>
    <route id="r63" edges="B2A2 A2A1 A1B1 B1C1 C1C0 C0B0"/>
    <vehicle id="71" depart="60.35" route="r63"/>
    <route id="r64" edges="A2B2 B2B1 B1B0 B0C0"/>
    <vehicle id="72" depart="61.20" route="r64"/>
    <vehicle id="73" depart="62.05" route="r61"/>
    <vehicle id="74" depart="62.90" route="r58"/>
    <route id="r65" edges="B2A2 A2A1 A1A0 A0B0"/>
    <vehicle id="75" depart="63.75" route="r65"/>
    <route id="r66" edges="C2B2 B2B1 B1A1"/>
    <vehicle id="76" depart="64.60" route="r66"/>
    <route id="r67" edges="B0B1 B1A1 A1A2 A2B2"/>
    <vehicle id="77" depart="65.45" route="r67"/>
    <vehicle id="78" depart="66.30" route="r39"/>
    <route id="r68" edges="A2A1 A1A0 A0B0"/>
    <vehicle id="79" depart="67.15" route="r68"/>
    <route id="r69" edges="A1A2 A2B2 B2B1 B1B0 B0C0 C0C1"/>
    <vehicle id="80" depart="68.00" route="r69"/>
    <route id="r70" edges="B0C0 C0C1 C1C2"/>
    <vehicle id="81" depart="68.85" route="r70"/>
    <route id="r71" edges="A0B0 B0C0 C0C1 C1C2"/>
    <vehicle id="82" depart="69.70" route="r71"/>
    <route id="r72" edges="C2C1 C1B1 B1B2 B2A2 A2A1"/>
    <vehicle id="83" depart="70.55" route="r72"/>
    <route id="r73" edges="B2A2 A2A1 A1A0"/>
    <vehicle id="84" depart="71.40" route="r73"/>
    <route id="r74" edges="C0C1 C1B1 B1B2"/>
    <vehicle id="85" depart="72.25" route="r74"/>
    <route id="r75" edges="C0B0 B0B1 B1B2 B2A2 A2A1"/>
    <vehicle id="86" depart="73.10" route="r75"/>
    <route id="r76" edges="A1A0 A0B0 B0C0 C0C1 C1C2"/>
    <vehicle id="87" depart="73.95" route="r76"/>
    <route id="r77" edges="C0C1 C1C2 C2B2 B2A2"/>
    <vehicle id="88" depart="74.80" route="r77"/>
    <vehicle id="89" depart="75.65" route="r67"/>
    <vehicle id="90" depart="76.50" route="r50"/>
    <vehicle id="91" depart="77.35" route="r73"/>
    <route id="r78" edges="A1A0 A0B0 B0B1 B1B2 B2C2"/>
    <vehicle id="92" depart="78.20" route="r78"/>
    <route id="r79" edges="C1B1 B1B2 B2A2"/>
    <vehicle id="93" depart="79.05" route="r79"/>
    <route id="r80" edges="C0C1 C1C2 C2B2 B2A2 A2A1"/>
    <vehicle id="94" depart="79.90" route="r80"/>
    <vehicle id="95" depart="80.75" route="r12"/>
    <vehicle id="96" depart="81.60" route="r76"/>
    <vehicle id="97" depart="82.45" route="r44"/>
    <vehicle id="98" depart="83.30" route="r22"/>
    <route id="r81" edges="C1C2 C2B2 B2B1 B1A1"/>
    <vehicle id="99" depart="84.15" route="r81"/>
    <route id="r82" edges="C1B1 B1B0 B0A0"/>
    <vehicle id="100" depart="85.00" route="r82"/>
    <route id="r83" edges="A1B1 B1C1"/>
    <vehicle id="101" depart="85.85" route="r83"/>
    <route id="r84" edges="A1B1 B1B0 B0C0 C0C1"/>
    <vehicle id="102" depart="86.70" route="r84"/>
    <route id="r85" edges="A0A1 A1B1 B1B2"/>
    <vehicle id="103" depart="87.55" route="r85"/>
    <vehicle id="104" depart="88.40" route="r21"/>
    <route id="r86" edges="A2A1 A1A0 A0B0 B0C0 C0C1"/>
    <vehicle id="105" depart="89.25" route="r86"/>
    <vehicle id="106" depart="90.10" route="r22"/>
    <vehicle id="107" depart="90.95" route="r54"/>
    <vehicle id="108" depart="91.80" route="r52"/>
    <vehicle id="109" depart="92.65" route="r84"/>
    <vehicle id="110" depart="93.50" route="r61"/>
    <vehicle id="111" depart="94.35" route="r58"/>
    <route id="r87" edges="A2B2 B2C2 C2C1"/>
    <vehicle id="112" depart="95.20" route="r87"/>
    <route id="r88" edges="C0B0 B0B1 B1B2 B2A2"/>
    <vehicle id="113" depart="96.05" route="r88"/>
    <route id="r89" edges="B0A0 A0A1 A1A2 A2B2"/>
    <vehicle id="114" depart="96.90" route="r89"/>
    <vehicle id="115" depart="97.75" route="r69"/>
    <route id="r90" edges="A0B0 B0A0 A0A1 A1A2 A2B2"/>
    <vehicle id="116" depart="98.60" route="r90"/>
    <route id="r91" edges="C0B0 B0A0 A0A1 A1A0"/>
    <vehicle id="117" depart="99.45" route="r91"/>
    <route id="r92" edges="C2B2 B2A2"/>
    <vehicle id="118" depart="100.30" route="r92"/>
    <route id="r93" edges="C1C0 C0B0 B0A0"/>
    <vehicle id="119" depart="101.15" route="r93"/>
    <route id="r94" edges="C0C1 C1B1 B1A1"/>
    <vehicle id="120" depart="102.00" route="r94"/>
    <vehicle id="121" depart="102.85" route="r38"/>
    <vehicle id="122" depart="103.70" route="r33"/>
    <vehicle id="123" depart="104.55" route="r23"/>
    <route id="r95" edges="A1A0 A0B0 B0C0"/>
    <vehicle id="124" depart="105.40" route="r95"/>
    <route id="r96" edges="A0A1 A1B1 B1B0 B0C0"/>
    <vehicle id="125" depart="106.25" route="r96"/>
    <vehicle id="126" depart="107.10" route="r75"/>
    <vehicle id="127" depart="107.95" route="r14"/>
    <route id="r97" edges="B0C0 C0C1 C1B1 B1B2"/>
    <vehicle id="128" depart="108.80" route="r97"/>
    <vehicle id="129" depart="109.65" route="r56"/>
    <route id="r98" edges="C0B0 B0A0"/>
    <vehicle id="130" depart="110.50" route="r98"/>
    <vehicle id="131" depart="111.35" route="r98"/>
    <route id="r99" edges="C1B1 B1A1 A1A0"/>
    <vehicle id="132" depart="112.20" route="r99"/>
    <route id="r100" edges="A1B1 B1B0 B0C0"/>
    <vehicle id="133" depart="113.05" route="r100"/>
    <vehicle id="134" depart="113.90" route="r46"/>
    <vehicle id="135" depart="114.75" route="r66"/>
    <vehicle id="136" depart="115.60" route="r56"/>
    <vehicle id="137" depart="116.45" route="r95"/>
    <vehicle id="138" depart="117.30" route="r79"/>
    <vehicle id="139" depart="118.15" route="r69"/>
    <route id="r101" edges="B0B1 B1B2"/>
    <vehicle id="140" depart="119.00" route="r101"/>
    <vehicle id="141" depart="119.85" route="r49"/>
    <vehicle id="142" depart="120.70" route="r8"/>
    <route id="r102" edges="A1A2 A2B2 B2C2 C2C1 C1C2"/>
    <vehicle id="143" depart="121.55" route="r102"/>
    <vehicle id="144" depart="122.40" route="r79"/>
    <vehicle id="145" depart="123.25" route="r61"/>
    <route id="r103" edges="A2A1 A1B1 B1C1"/>
    <vehicle id="146" depart="124.10" route="r103"/>
    <route id="r104" edges="B2B1 B1B0 B0A0"/>
    <vehicle id="147" depart="124.95" route="r104"/>
    <route id="r105" edges="B2C2 C2C1 C1C0 C0B0"/>
    <vehicle id="148" depart="125.80" route="r105"/>
    <route id="r106" edges="B0C0 C0C1 C1C2 C2B2 B2A2"/>
    <vehicle id="149" depart="126.65" route="r106"/>
    <route id="r107" edges="C1B1 B1B0 B0A0 A0A1"/>
    <vehicle id="150" depart="127.50" route="r107"/>
    <route id="r108" edges="A1A2 A2B2 B2B1 B1B0 B0C0"/>
    <vehicle id="151" depart="128.35" route="r108"/>
    <route id="r109" edges="C2C1 C1B1 B1B2 B2A2"/>
    <vehicle id="152" depart="129.20" route="r109"/>
    <vehicle id="153" depart="130.05" route="r21"/>
    <vehicle id="154" depart="130.90" route="r88"/>
    <vehicle id="155" depart="131.75" route="r9"/>
    <vehicle id="156" depart="132.60" route="r65"/>
    <route id="r110" edges="A0B0 B0B1 B1B2 B2C2"/>
    <vehicle id="157" depart="133.45" route="r110"/>
    <vehicle id="158" depart="134.30" route="r68"/>
    <route id="r111" edges="B2B1 B1C1 C1C0"/>
    <vehicle id="159" depart="135.15" route="r111"/>
    <vehicle id="160" depart="136.00" route="r52"/>
    <route id="r112" edges="C2B2 B2B1 B1B0 B0A0 A0A1"/>
    <vehicle id="161" depart="136.85" route="r112"/>
    <route id="r113" edges="A2A1 A1B1 B1B0 B0A0"/>
    <vehicle id="162" depart="137.70" route="r113"/>
    <vehicle id="163" depart="138.55" route="r65"/>
    <vehicle id="164" depart="139.40" route="r19"/>
    <vehicle id="165" depart="140.25" route="r49"/>
    <route id="r114" edges="A1B1 B1C1 C1C2"/>
    <vehicle id="166" depart="141.10" route="r114"/>
    <vehicle id="167" depart="141.95" route="r98"/>
    <route id="r115" edges="C0B0 B0A0 A0A1 A1A2"/>
    <vehicle id="168" depart="142.80" route="r115"/>
    <vehicle id="169" depart="143.65" route="r113"/>
    <vehicle id="170" depart="144.50" route="r13"/>
    <vehicle id="171" depart="145.35" route="r113"/>
    <vehicle id="172" depart="146.20" route="r8"/>
    <vehicle id="173" depart="147.05" route="r80"/>
    <route id="r116" edges="A2B2 B2B1 B1C1"/>
    <vehicle id="174" depart="147.90" route="r116"/>
    <vehicle id="175" depart="148.75" route="r114"/>
    <vehicle id="176" depart="149.60" route="r62"/>
    <route id="r117" edges="B0C0 C0C1 C1C2 C2B2"/>
    <vehicle id="177" depart="150.45" route="r117"/>
    <vehicle id="178" depart="151.30" route="r74"/>
    <vehicle id="179" depart="152.15" route="r55"/>
    <route id="r118" edges="A2A1 A1B1 B1B0"/>
    <vehicle id="180" depart="153.00" route="r118"/>
    <vehicle id="181" depart="153.85" route="r103"/>
    <vehicle id="182" depart="154.70" route="r63"/>
    <vehicle id="183" depart="155.55" route="r71"/>
    <vehicle id="184" depart="156.40" route="r80"/>
    <route id="r119" edges="A1A2 A2B2 B2C2"/>
    <vehicle id="185" depart="157.25" route="r119"/>
    <route id="r120" edges="A0B0 B0C0"/>
    <vehicle id="186" depart="158.10" route="r120"/>
    <route id="r121" edges="C2C1 C1B1 B1A1 A1A0 A0B0"/>
    <vehicle id="187" depart="158.95" route="r121"/>
    <route id="r122" edges="C2C1 C1B1 B1A1 A1A2"/>
    <vehicle id="188" depart="159.80" route="r122"/>
    <vehicle id="189" depart="160.65" route="r51"/>
    <vehicle id="190" depart="161.50" route="r14"/>
    <vehicle id="191" depart="162.35" route="r109"/>
    <vehicle id="192" depart="163.20" route="r96"/>
    <route id="r123" edges="B2B1 B1A1 A1A0 A0B0"/>
    <vehicle id="193" depart="164.05" route="r123"/>
    <vehicle id="194" depart="164.90" route="r23"/>
    <vehicle id="195" depart="165.75" route="r46"/>
    <vehicle id="196" depart="166.60" route="r83"/>
    <vehicle id="197" depart="167.45" route="r118"/>
    <vehicle id="198" depart="168.30" route="r117"/>
    <route id="r124" edges="C0B0 B0A0 A0A1 A1A2 A2B2"/>
    <vehicle id="199" depart="169.15" route="r124"/>
    <route id="r125" edges="B0B1 B1A1 A1A2"/>
    <vehicle id="200" depart="170.00" route="r125"/>
    <route id="r126" edges="C1C2 C2B2 B2B1 B1B0 B0A0 A0A1"/>
    <vehicle id="201" depart="170.85" route="r126"/>
    <vehicle id="202" depart="171.70" route="r71"/>
    <vehicle id="203" depart="172.55" route="r32"/>
    <vehicle id="204" depart="173.40" route="r39"/>
    <vehicle id="205" depart="174.25" route="r47"/>
    <route id="r127" edges="C2C1 C1C0 C0B0 B0A0"/>
    <vehicle id="206" depart="175.10" route="r127"/>
    <vehicle id="207" depart="175.95" route="r15"/>
    <vehicle id="208" depart="176.80" route="r47"/>
    <route id="r128" edges="B2B1 B1A1 A1A0"/>
    <vehicle id="209" depart="177.65" route="r128"/>
    <vehicle id="210" depart="178.50" route="r120"/>
    <route id="r129" edges="A2A1 A1A0"/>
    <vehicle id="211" depart="179.35" route="r129"/>
    <route id="r130" edges="A1A2 A2B2 B2B1 B1C1"/>
    <vehicle id="212" depart="180.20" route="r130"/>
    <vehicle id="213" depart="181.05" route="r120"/>
    <route id="r131" edges="B2A2 A2A1 A1B1 B1B0"/>
    <vehicle id="214" depart="181.90" route="r131"/>
    <vehicle id="215" depart="182.75" route="r89"/>
    <route id="r132" edges="A2B2 B2C2"/>
    <vehicle id="216" depart="183.60" route="r132"/>
    <vehicle id="217" depart="184.45" route="r126"/>
    <vehicle id="218" depart="185.30" route="r122"/>
    <route id="r133" edges="A0A1 A1B1 B1C1"/>
    <vehicle id="219" depart="186.15" route="r133"/>
    <vehicle id="220" depart="187.00" route="r18"/>
    <vehicle id="221" depart="187.85" route="r67"/>
    <route id="r134" edges="C0B0 B0B1 B1B2"/>
    <vehicle id="222" depart="188.70" route="r134"/>
    <vehicle id="223" depart="189.55" route="r78"/>
    <route id="r135" edges="A1A2 A2B2 B2C2 C2C1 C1C0"/>
    <vehicle id="224" depart="190.40" route="r135"/>
    <vehicle id="225" depart="191.25" route="r124"/>
    <vehicle id="226" depart="192.10" route="r98"/>
    <vehicle id="227" depart="192.95" route="r108"/>
    <vehicle id="228" depart="193.80" route="r122"/>
    <vehicle id="229" depart="194.65" route="r60"/>
    <vehicle id="230" depart="195.50" route="r39"/>
    <vehicle id="231" depart="196.35" route="r57"/>
    <vehicle id="232" depart="197.20" route="r64"/>
    <vehicle id="233" depart="198.05" route="r4"/>
    <route id="r136" edges="C1B1 B1A1 A1A2"/>
    <vehicle id="234" depart="198.90" route="r136"/>
    <vehicle id="235" depart="199.75" route="r118"/>
    <vehicle id="236" depart="200.60" route="r67"/>
    <vehicle id="237" depart="201.45" route="r48"/>
    <vehicle id="238" depart="202.30" route="r40"/>
    <vehicle id="239" depart="203.15" route="r20"/>
    <route id="r137" edges="B0A0 A0A1 A1B1 B1B2"/>
    <vehicle id="240" depart="204.00" route="r137"/>
    <vehicle id="241" depart="204.85" route="r62"/>
    <vehicle id="242" depart="205.70" route="r57"/>
    <route id="r138" edges="C2B2 B2B1 B1B0 B0C0"/>
    <vehicle id="243" depart="206.55" route="r138"/>
    <vehicle id="244" depart="207.40" route="r126"/>
    <vehicle id="245" depart="208.25" route="r67"/>
    <vehicle id="246" depart="209.10" route="r48"/>
    <vehicle id="247" depart="209.95" route="r75"/>
    <vehicle id="248" depart="210.80" route="r85"/>
    <vehicle id="249" depart="211.65" route="r114"/>
    <vehicle id="250" depart="212.50" route="r8"/>
    <vehicle id="251" depart="213.35" route="r7"/>
    <vehicle id="252" depart="214.20" route="r132"/>
    <route id="r139" edges="C2B2 B2B1 B1B0 B0A0"/>
    <vehicle id="253" depart="215.05" route="r139"/>
    <vehicle id="254" depart="215.90" route="r122"/>
    <vehicle id="255" depart="216.75" route="r60"/>
    <route id="r140" edges="A1A0 A0B0 B0B1 B1C1 C1C0"/>
    <vehicle id="256" depart="217.60" route="r140"/>
    <vehicle id="257" depart="218.45" route="r42"/>
    <vehicle id="258" depart="219.30" route="r98"/>
    <route id="r141" edges="A1A2 A2B2 B2C2 C2C1"/>
    <vehicle id="259" depart="220.15" route="r141"/>
    <vehicle id="260" depart="221.00" route="r121"/>
    <vehicle id="261" depart="221.85" route="r20"/>
    <vehicle id="262" depart="222.70" route="r136"/>
    <route id="r142" edges="A0B0 B0B1 B1B2 B2C2 C2C1"/>
    <vehicle id="263" depart="223.55" route="r142"/>
    <route id="r143" edges="A1B1 B1B2 B2C2"/>
    <vehicle id="264" depart="224.40" route="r143"/>
    <vehicle id="265" depart="225.25" route="r27"/>
    <vehicle id="266" depart="226.10" route="r92"/>
    <vehicle id="267" depart="226.95" route="r23"/>
    <vehicle id="268" depart="227.80" route="r103"/>
    <route id="r144" edges="A2B2 B2C2 C2C1 C1C0"/>
    <vehicle id="269" depart="228.65" route="r144"/>
    <vehicle id="270" depart="229.50" route="r144"/>
    <vehicle id="271" depart="230.35" route="r138"/>
    <vehicle id="272" depart="231.20" route="r88"/>
    <vehicle id="273" depart="232.05" route="r28"/>
    <route id="r145" edges="B0C0 C0C1 C1B1 B1A1 A1A2"/>
    <vehicle id="274" depart="232.90" route="r145"/>
    <vehicle id="275" depart="233.75" route="r76"/>
    <vehicle id="276" depart="234.60" route="r4"/>
    <vehicle id="277" depart="235.45" route="r50"/>
    <vehicle id="278" depart="236.30" route="r108"/>
    <vehicle id="279" depart="237.15" route="r91"/>
    <vehicle id="280" depart="238.00" route="r63"/>
    <route id="r146" edges="A0A1 A1B1 B1C1 C1C0"/>
    <vehicle id="281" depart="238.85" route="r146"/>
    <vehicle id="282" depart="239.70" route="r25"/>
    <vehicle id="283" depart="240.55" route="r137"/>
    <vehicle id="284" depart="241.40" route="r10"/>
    <vehicle id="285" depart="242.25" route="r80"/>
    <route id="r147" edges="C1C0 C0B0 B0A0 A0A1 A1A0"/>
    <vehicle id="286" depart="243.10" route="r147"/>
    <route id="r148" edges="C1C0 C0B0 B0A0 A0A1 A1A2"/>
    <vehicle id="287" depart="243.95" route="r148"/>
    <vehicle id="288" depart="244.80" route="r106"/>
    <vehicle id="289" depart="245.65" route="r111"/>
    <vehicle id="290" depart="246.50" route="r120"/>
    <vehicle id="291" depart="247.35" route="r90"/>
    <vehicle id="292" depart="248.20" route="r124"/>
    <route id="r149" edges="A0B0 B0B1 B1C1 C1C0"/>
    <vehicle id="293" depart="249.05" route="r149"/>
    <route id="r150" edges="A0B0 B0B1 B1B2"/>
    <vehicle id="294" depart="249.90" route="r150"/>
    <vehicle id="295" depart="250.75" route="r129"/>
    <vehicle id="296" depart="251.60" route="r96"/>
    <vehicle id="297" depart="252.45" route="r62"/>
    <vehicle id="298" depart="253.30" route="r45"/>
    <vehicle id="299" depart="254.15" route="r54"/>
    <vehicle id="300" depart="255.00" route="r132"/>
    <vehicle id="301" depart="255.85" route="r8"/>
    <vehicle id="302" depart="256.70" route="r82"/>
    <route id="r151" edges="A0B0 B0C0 C0C1"/>
    <vehicle id="303" depart="257.55" route="r151"/>
    <route id="r152" edges="A0B0 B0B1 B1B2 B2A2"/>
    <vehicle id="304" depart="258.40" route="r152"/>
    <route id="r153" edges="C0B0 B0B1 B1A1"/>
    <vehicle id="305" depart="259.25" route="r153"/>
    <route id="r154" edges="C2B2 B2A2 A2A1 A1A0 A0B0"/>
    <vehicle id="306" depart="260.10" route="r154"/>
    <vehicle id="307" depart="260.95" route="r94"/>
    <vehicle id="308" depart="261.80" route="r140"/>
    <vehicle id="309" depart="262.65" route="r49"/>
    <vehicle id="310" depart="263.50" route="r7"/>
    <vehicle id="311" depart="264.35" route="r140"/>
    <vehicle id="312" depart="265.20" route="r131"/>
    <vehicle id="313" depart="266.05" route="r127"/>
    <vehicle id="314" depart="266.90" route="r39"/>
    <vehicle id="315" depart="267.75" route="r81"/>
    <route id="r155" edges="C0C1 C1B1 B1A1 A1A0"/>
    <vehicle id="316" depart="268.60" route="r155"/>
    <route id="r156" edges="A0A1 A1A2 A2B2 B2C2"/>
    <vehicle id="317" depart="269.45" route="r156"/>
    <route id="r157" edges="B0A0 A0A1 A1A2"/>
    <vehicle id="318" depart="270.30" route="r157"/>
    <vehicle id="319" depart="271.15" route="r99"/>
    <vehicle id="320" depart="272.00" route="r80"/>
    <vehicle id="321" depart="272.85" route="r73"/>
    <vehicle id="322" depart="273.70" route="r35"/>
    <vehicle id="323" depart="274.55" route="r144"/>
    <vehicle id="324" depart="275.40" route="r124"/>
    <vehicle id="325" depart="276.25" route="r89"/>
    <vehicle id="326" depart="277.10" route="r148"/>
    <vehicle id="327" depart="277.95" route="r134"/>
    <vehicle id="328" depart="278.80" route="r5"/>
    <vehicle id="329" depart="279.65" route="r58"/>
    <vehicle id="330" depart="280.50" route="r123"/>
    <vehicle id="331" depart="281.35" route="r34"/>
    <vehicle id="332" depart="282.20" route="r127"/>
    <vehicle id="333" depart="283.05" route="r123"/>
    <vehicle id="334" depart="283.90" route="r133"/>
    <vehicle id="335" depart="284.75" route="r23"/>
    <vehicle id="336" depart="285.60" route="r38"/>
    <route id="r158" edges="A0A1 A1B1 B1B0 B0C0 C0C1"/>
    <vehicle id="337" depart="286.45" route="r158"/>
    <vehicle id="338" depart="287.30" route="r37"/>
    <vehicle id="339" depart="288.15" route="r41"/>
    <vehicle id="340" depart="289.00" route="r9"/>
    <vehicle id="341" depart="289.85" route="r61"/>
    <vehicle id="342" depart="290.70" route="r22"/>
    <vehicle id="343" depart="291.55" route="r74"/>
    <vehicle id="344" depart="292.40" route="r151"/>
    <vehicle id="345" depart="293.25" route="r145"/>
    <route id="r159" edges="B0C0 C0C1 C1B1 B1A1 A1A2 A2B2"/>
    <vehicle id="346" depart="294.10" route="r159"/>
    <vehicle id="347" depart="294.95" route="r63"/>
    <vehicle id="348" depart="295.80" route="r51"/>
    <vehicle id="349" depart="296.65" route="r114"/>
    <route id="r160" edges="B0B1 B1C1 C1C2 C2B2"/>
    <vehicle id="350" depart="297.50" route="r160"/>
    <vehicle id="351" depart="298.35" route="r119"/>
    <vehicle id="352" depart="299.20" route="r66"/>
    <vehicle id="353" depart="300.05" route="r74"/>
    <vehicle id="354" depart="300.90" route="r154"/>
    <vehicle id="355" depart="301.75" route="r68"/>
    <vehicle id="356" depart="302.60" route="r62"/>
    <route id="r161" edges="A0B0 B0A0 A0A1 A1A2"/>
    <vehicle id="357" depart="303.45" route="r161"/>
    <vehicle id="358" depart="304.30" route="r17"/>
    <route id="r162" edges="C1C2 C2B2 B2A2 A2A1"/>
    <vehicle id="359" depart="305.15" route="r162"/>
    <vehicle id="360" depart="306.00" route="r3"/>
    <vehicle id="361" depart="306.85" route="r51"/>
    <vehicle id="362" depart="307.70" route="r75"/>
    <vehicle id="363" depart="308.55" route="r78"/>
    <vehicle id="364" depart="309.40" route="r116"/>
    <vehicle id="365" depart="310.25" route="r29"/>
    <vehicle id="366" depart="311.10" route="r33"/>
    <vehicle id="367" depart="311.95" route="r61"/>
    <vehicle id="368" depart="312.80" route="r144"/>
    <vehicle id="369" depart="313.65" route="r82"/>
    <vehicle id="370" depart="314.50" route="r85"/>
    <vehicle id="371" depart="315.35" route="r110"/>
    <vehicle id="372" depart="316.20" route="r8"/>
    <vehicle id="373" depart="317.05" route="r93"/>
    <vehicle id="374" depart="317.90" route="r143"/>
    <vehicle id="375" depart="318.75" route="r29"/>
    <vehicle id="376" depart="319.60" route="r32"/>
    <vehicle id="377" depart="320.45" route="r33"/>
    <vehicle id="378" depart="321.30" route="r89"/>
    <vehicle id="379" depart="322.15" route="r49"/>
    <vehicle id="380" depart="323.00" route="r92"/>
    <vehicle id="381" depart="323.85" route="r89"/>
    <vehicle id="382" depart="324.70" route="r146"/>
    <vehicle id="383" depart="325.55" route="r75"/>
    <vehicle id="384" depart="326.40" route="r83"/>
    <vehicle id="385" depart="327.25" route="r113"/>
    <vehicle id="386" depart="328.10" route="r101"/>
    <vehicle id="387" depart="328.95" route="r118"/>
    <vehicle id="388" depart="329.80" route="r57"/>
    <vehicle id="389" depart="330.65" route="r130"/>
    <vehicle id="390" depart="331.50" route="r39"/>
    <vehicle id="391" depart="332.35" route="r98"/>
    <vehicle id="392" depart="333.20" route="r90"/>
    <vehicle id="393" depart="334.05" route="r120"/>
    <vehicle id="394" depart="334.90" route="r3"/>
    <route id="r163" edges="A2A1 A1B1 B1C1 C1C0"/>
    <vehicle id="395" depart="335.75" route="r163"/>
    <vehicle id="396" depart="336.60" route="r70"/>
    <route id="r164" edges="A2B2 B2B1 B1B0 B0C0 C0C1"/>
    <vehicle id="397" depart="337.45" route="r164"/>
    <vehicle id="398" depart="338.30" route="r24"/>
    <vehicle id="399" depart="339.15" route="r81"/>
    <vehicle id="400" depart="340.00" route="r70"/>
    <vehicle id="401" depart="340.85" route="r56"/>
    <vehicle id="402" depart="341.70" route="r98"/>
    <vehicle id="403" depart="342.55" route="r12"/>
    <vehicle id="404" depart="343.40" route="r86"/>