<?xml version="1.0" encoding="UTF-8"?>

<!-- generated on 2026-07-18 14:23:51 by Eclipse SUMO netgenerate Version 1.20.0
<configuration xmlns:xsi="http://www.w3.org/2001/XMLSchema-instance" xsi:noNamespaceSchemaLocation="http://sumo.dlr.de/xsd/netgenerateConfiguration.xsd">

    <grid_network>
        <grid value="true"/>
        <grid.number value="8"/>
        <grid.length value="120.0"/>
        <grid.attach-length value="100.0"/>
    </grid_network>

    <output>
        <output-file value="/home/user/SumoData/experiments/subarea/synthetic_parity/grid.net.xml"/>
    </output>

    <processing>
        <turn-lanes value="0"/>
    </processing>

    <building_defaults>
        <default.lanenumber value="2"/>
        <default-junction-type value="priority"/>
    </building_defaults>

    <tls_building>
        <tls.discard-simple value="true"/>
    </tls_building>

    <junctions>
        <no-turnarounds value="false"/>
    </junctions>

    <random_number>
        <seed value="42"/>
    </random_number>

</configuration>
-->

<net version="1.20" junctionCornerDetail="5" limitTurnSpeed="5.50" xmlns:xsi="http://www.w3.org/2001/XMLSchema-instance" xsi:noNamespaceSchemaLocation="http://sumo.dlr.de/xsd/net_file.xsd">

    <location netOffset="0.00,0.00" convBoundary="0.00,0.00,1040.00,1040.00" origBoundary="0.00,0.00,1040.00,1040.00" projParameter="!"/>

    <edge id=":A0_0" function="internal">
        <lane id=":A0_0_0" index="0" speed="6.51" length="9.03" shape="95.20,110.40 94.85,107.95 93.80,106.20 92.05,105.15 89.60,104.80"/>
    </edge>
    <edge id=":A0_1" function="internal">
        <lane id=":A0_1_0" index="0" speed="13.89" length="20.80" shape="95.20,110.40 95.20,89.60"/>
        <lane id=":A0_1_1" index="1" speed="13.89" length="20.80" shape="98.40,110.40 98.40,89.60"/>
    </edge>
    <edge id=":A0_3" function="internal">
        <lane id=":A0_3_0" index="0" speed="9.26" length="5.01" shape="98.40,110.40 99.11,105.44"/>
    </edge>
    <edge id=":A0_4" function="internal">
        <lane id=":A0_4_0" index="0" speed="3.65" length="1.44" shape="98.40,110.40 99.20,109.20"/>
    </edge>
    <edge id=":A0_20" function="internal">
        <lane id=":A0_20_0" index="0" speed="9.26" length="14.34" shape="99.11,105.44 99.15,105.15 101.40,101.40 105.15,99.15 110.40,98.40"/>
    </edge>
    <edge id=":A0_21" function="internal">
        <lane id=":A0_21_0" index="0" speed="3.65" length="3.23" shape="99.20,109.20 100.00,108.80 100.80,109.20 101.60,110.40"/>
    </edge>
    <edge id=":A0_5" function="internal">
        <lane id=":A0_5_0" index="0" speed="6.51" length="9.03" shape="110.40,104.80 107.95,105.15 106.20,106.20 105.15,107.95 104.80,110.40"/>
    </edge>
    <edge id=":A0_6" function="internal">
        <lane id=":A0_6_0" index="0" speed="13.89" length="20.80" shape="110.40,104.80 89.60,104.80"/>
        <lane id=":A0_6_1" index="1" speed="13.89" length="20.80" shape="110.40,101.60 89.60,101.60"/>
    </edge>
    <edge id=":A0_8" function="internal">
        <lane id=":A0_8_0" index="0" speed="9.26" length="19.35" shape="110.40,101.60 105.15,100.85 101.40,98.60 99.15,94.85 98.40,89.60"/>
    </edge>
    <edge id=":A0_9" function="internal">
        <lane id=":A0_9_0" index="0" speed="3.65" length="4.67" shape="110.40,101.60 109.20,100.80 108.80,100.00 109.20,99.20 110.40,98.40"/>
    </edge>
    <edge id=":A0_10" function="internal">
        <lane id=":A0_10_0" index="0" speed="6.51" length="9.03" shape="104.80,89.60 105.15,92.05 106.20,93.80 107.95,94.85 110.40,95.20"/>
    </edge>
    <edge id=":A0_11" function="internal">
        <lane id=":A0_11_0" index="0" speed="13.89" length="20.80" shape="104.80,89.60 104.80,110.40"/>
        <lane id=":A0_11_1" index="1" speed="13.89" length="20.80" shape="101.60,89.60 101.60,110.40"/>
    </edge>
    <edge id=":A0_13" function="internal">
        <lane id=":A0_13_0" index="0" speed="9.26" length="5.01" shape="101.60,89.60 100.89,94.56"/>
    </edge>
    <edge id=":A0_14" function="internal">
        <lane id=":A0_14_0" index="0" speed="3.65" length="1.44" shape="101.60,89.60 100.80,90.80"/>
    </edge>
    <edge id=":A0_22" function="internal">
        <lane id=":A0_22_0" index="0" speed="9.26" length="14.34" shape="100.89,94.56 100.85,94.85 98.60,98.60 94.85,100.85 89.60,101.60"/>
    </edge>
    <edge id=":A0_23" function="internal">
        <lane id=":A0_23_0" index="0" speed="3.65" length="3.23" shape="100.80,90.80 100.00,91.20 99.20,90.80 98.40,89.60"/>
    </edge>
    <edge id=":A0_15" function="internal">
        <lane id=":A0_15_0" index="0" speed="6.51" length="9.03" shape="89.60,95.20 92.05,94.85 93.80,93.80 94.85,92.05 95.20,89.60"/>
    </edge>
    <edge id=":A0_16" function="internal">
        <lane id=":A0_16_0" index="0" speed="13.89" length="20.80" shape="89.60,95.20 110.40,95.20"/>
        <lane id=":A0_16_1" index="1" speed="13.89" length="20.80" shape="89.60,98.40 110.40,98.40"/>
    </edge>
    <edge id=":A0_18" function="internal">
        <lane id=":A0_18_0" index="0" speed="9.26" length="19.35" shape="89.60,98.40 94.85,99.15 98.60,101.40 100.85,105.15 101.60,110.40"/>
    </edge>
    <edge id=":A0_19" function="internal">
        <lane id=":A0_19_0" index="0" speed="3.65" length="4.67" shape="89.60,98.40 90.80,99.20 91.20,100.00 90.80,100.80 89.60,101.60"/>
    </edge>
    <edge id=":A1_0" function="internal">
        <lane id=":A1_0_0" index="0" speed="6.51" length="9.03" shape="95.20,230.40 94.85,227.95 93.80,226.20 92.05,225.15 89.60,224.80"/>
    </edge>
    <edge id=":A1_1" function="internal">
        <lane id=":A1_1_0" index="0" speed="13.89" length="20.80" shape="95.20,230.40 95.20,209.60"/>
        <lane id=":A1_1_1" index="1" speed="13.89" length="20.80" shape="98.40,230.40 98.40,209.60"/>
    </edge>
    <edge id=":A1_3" function="internal">
        <lane id=":A1_3_0" index="0" speed="9.26" length="5.01" shape="98.40,230.40 99.11,225.44"/>
    </edge>
    <edge id=":A1_4" function="internal">
        <lane id=":A1_4_0" index="0" speed="3.65" length="1.44" shape="98.40,230.40 99.20,229.20"/>
    </edge>
    <edge id=":A1_20" function="internal">
        <lane id=":A1_20_0" index="0" speed="9.26" length="14.34" shape="99.11,225.44 99.15,225.15 101.40,221.40 105.15,219.15 110.40,218.40"/>
    </edge>
    <edge id=":A1_21" function="internal">
        <lane id=":A1_21_0" index="0" speed="3.65" length="3.23" shape="99.20,229.20 100.00,228.80 100.80,229.20 101.60,230.40"/>
    </edge>
    <edge id=":A1_5" function="internal">
        <lane id=":A1_5_0" index="0" speed="6.51" length="9.03" shape="110.40,224.80 107.95,225.15 106.20,226.20 105.15,227.95 104.80,230.40"/>
    </edge>
    <edge id=":A1_6" function="internal">
        <lane id=":A1_6_0" index="0" speed="13.89" length="20.80" shape="110.40,224.80 89.60,224.80"/>
        <lane id=":A1_6_1" index="1" speed="13.89" length="20.80" shape="110.40,221.60 89.60,221.60"/>
    </edge>
    <edge id=":A1_8" function="internal">
        <lane id=":A1_8_0" index="0" speed="9.26" length="19.35" shape="110.40,221.60 105.15,220.85 101.40,218.60 99.15,214.85 98.40,209.60"/>
    </edge>
    <edge id=":A1_9" function="internal">
        <lane id=":A1_9_0" index="0" speed="3.65" length="4.67" shape="110.40,221.60 109.20,220.80 108.80,220.00 109.20,219.20 110.40,218.40"/>
    </edge>
    <edge id=":A1_10" function="internal">
        <lane id=":A1_10_0" index="0" speed="6.51" length="9.03" shape="104.80,209.60 105.15,212.05 106.20,213.80 107.95,214.85 110.40,215.20"/>
    </edge>
    <edge id=":A1_11" function="internal">
        <lane id=":A1_11_0" index="0" speed="13.89" length="20.80" shape="104.80,209.60 104.80,230.40"/>
        <lane id=":A1_11_1" index="1" speed="13.89" length="20.80" shape="101.60,209.60 101.60,230.40"/>
    </edge>
    <edge id=":A1_13" function="internal">
        <lane id=":A1_13_0" index="0" speed="9.26" length="5.01" shape="101.60,209.60 100.89,214.56"/>
    </edge>
    <edge id=":A1_14" function="internal">
        <lane id=":A1_14_0" index="0" speed="3.65" length="1.44" shape="101.60,209.60 100.80,210.80"/>
    </edge>
    <edge id=":A1_22" function="internal">
        <lane id=":A1_22_0" index="0" speed="9.26" length="14.34" shape="100.89,214.56 100.85,214.85 98.60,218.60 94.85,220.85 89.60,221.60"/>
    </edge>
    <edge id=":A1_23" function="internal">
        <lane id=":A1_23_0" index="0" speed="3.65" length="3.23" shape="100.80,210.80 100.00,211.20 99.20,210.80 98.40,209.60"/>
    </edge>
    <edge id=":A1_15" function="internal">
        <lane id=":A1_15_0" index="0" speed="6.51" length="9.03" shape="89.60,215.20 92.05,214.85 93.80,213.80 94.85,212.05 95.20,209.60"/>
    </edge>
    <edge id=":A1_16" function="internal">
        <lane id=":A1_16_0" index="0" speed="13.89" length="20.80" shape="89.60,215.20 110.40,215.20"/>
        <lane id=":A1_16_1" index="1" speed="13.89" length="20.80" shape="89.60,218.40 110.40,218.40"/>
    </edge>
    <edge id=":A1_18" function="internal">
        <lane id=":A1_18_0" index="0" speed="9.26" length="19.35" shape="89.60,218.40 94.85,219.15 98.60,221.40 100.85,225.15 101.60,230.40"/>
    </edge>
    <edge id=":A1_19" function="internal">
        <lane id=":A1_19_0" index="0" speed="3.65" length="4.67" shape="89.60,218.40 90.80,219.20 91.20,220.00 90.80,220.80 89.60,221.60"/>
    </edge>
    <edge id=":A2_0" function="internal">
        <lane id=":A2_0_0" index="0" speed="6.51" length="9.03" shape="95.20,350.40 94.85,347.95 93.80,346.20 92.05,345.15 89.60,344.80"/>
    </edge>
    <edge id=":A2_1" function="internal">
        <lane id=":A2_1_0" index="0" speed="13.89" length="20.80" shape="95.20,350.40 95.20,329.60"/>
        <lane id=":A2_1_1" index="1" speed="13.89" length="20.80" shape="98.40,350.40 98.40,329.60"/>
    </edge>
    <edge id=":A2_3" function="internal">
        <lane id=":A2_3_0" index="0" speed="9.26" length="5.01" shape="98.40,350.40 99.11,345.44"/>
    </edge>
    <edge id=":A2_4" function="internal">
        <lane id=":A2_4_0" index="0" speed="3.65" length="1.44" shape="98.40,350.40 99.20,349.20"/>
    </edge>
    <edge id=":A2_20" function="internal">
        <lane id=":A2_20_0" index="0" speed="9.26" length="14.34" shape="99.11,345.44 99.15,345.15 101.40,341.40 105.15,339.15 110.40,338.40"/>
    </edge>
    <edge id=":A2_21" function="internal">
        <lane id=":A2_21_0" index="0" speed="3.65" length="3.23" shape="99.20,349.20 100.00,348.80 100.80,349.20 101.60,350.40"/>
    </edge>
    <edge id=":A2_5" function="internal">
        <lane id=":A2_5_0" index="0" speed="6.51" length="9.03" shape="110.40,344.80 107.95,345.15 106.20,346.20 105.15,347.95 104.80,350.40"/>
    </edge>
    <edge id=":A2_6" function="internal">
        <lane id=":A2_6_0" index="0" speed="13.89" length="20.80" shape="110.40,344.80 89.60,344.80"/>
        <lane id=":A2_6_1" index="1" speed="13.89" length="20.80" shape="110.40,341.60 89.60,341.60"/>
    </edge>
    <edge id=":A2_8" function="internal">
        <lane id=":A2_8_0" index="0" speed="9.26" length="19.35" shape="110.40,341.60 105.15,340.85 101.40,338.60 99.15,334.85 98.40,329.60"/>
    </edge>
    <edge id=":A2_9" function="internal">
        <lane id=":A2_9_0" index="0" speed="3.65" length="4.67" shape="110.40,341.60 109.20,340.80 108.80,340.00 109.20,339.20 110.40,338.40"/>
    </edge>
    <edge id=":A2_10" function="internal">
        <lane id=":A2_10_0" index="0" speed="6.51" length="9.03" shape="104.80,329.60 105.15,332.05 106.20,333.80 107.95,334.85 110.40,335.20"/>
    </edge>
    <edge id=":A2_11" function="internal">
        <lane id=":A2_11_0" index="0" speed="13.89" length="20.80" shape="104.80,329.60 104.80,350.40"/>
        <lane id=":A2_11_1" index="1" speed="13.89" length="20.80" shape="101.60,329.60 101.60,350.40"/>
    </edge>
    <edge id=":A2_13" function="internal">
        <lane id=":A2_13_0" index="0" speed="9.26" length="5.01" shape="101.60,329.60 100.89,334.56"/>
    </edge>
    <edge id=":A2_14" function="internal">
        <lane id=":A2_14_0" index="0" speed="3.65" length="1.44" shape="101.60,329.60 100.80,330.80"/>
    </edge>
    <edge id=":A2_22" function="internal">
        <lane id=":A2_22_0" index="0" speed="9.26" length="14.34" shape="100.89,334.56 100.85,334.85 98.60,338.60 94.85,340.85 89.60,341.60"/>
    </edge>
    <edge id=":A2_23" function="internal">
        <lane id=":A2_23_0" index="0" speed="3.65" length="3.23" shape="100.80,330.80 100.00,331.20 99.20,330.80 98.40,329.60"/>
    </edge>
    <edge id=":A2_15" function="internal">
        <lane id=":A2_15_0" index="0" speed="6.51" length="9.03" shape="89.60,335.20 92.05,334.85 93.80,333.80 94.85,332.05 95.20,329.60"/>
    </edge>
    <edge id=":A2_16" function="internal">
        <lane id=":A2_16_0" index="0" speed="13.89" length="20.80" shape="89.60,335.20 110.40,335.20"/>
        <lane id=":A2_16_1" index="1" speed="13.89" length="20.80" shape="89.60,338.40 110.40,338.40"/>
    </edge>
    <edge id=":A2_18" function="internal">
        <lane id=":A2_18_0" index="0" speed="9.26" length="19.35" shape="89.60,338.40 94.85,339.15 98.60,341.40 100.85,345.15 101.60,350.40"/>
    </edge>
    <edge id=":A2_19" function="internal">
        <lane id=":A2_19_0" index="0" speed="3.65" length="4.67" shape="89.60,338.40 90.80,339.20 91.20,340.00 90.80,340.80 89.60,341.60"/>
    </edge>
    <edge id=":A3_0" function="internal">
        <lane id=":A3_0_0" index="0" speed="6.51" length="9.03" shape="95.20,470.40 94.85,467.95 93.80,466.20 92.05,465.15 89.60,464.80"/>
    </edge>
    <edge id=":A3_1" function="internal">
        <lane id=":A3_1_0" index="0" speed="13.89" length="20.80" shape="95.20,470.40 95.20,449.60"/>
        <lane id=":A3_1_1" index="1" speed="13.89" length="20.80" shape="98.40,470.40 98.40,449.60"/>
    </edge>
    <edge id=":A3_3" function="internal">
        <lane id=":A3_3_0" index="0" speed="9.26" length="5.01" shape="98.40,470.40 99.11,465.44"/>
    </edge>
    <edge id=":A3_4" function="internal">
        <lane id=":A3_4_0" index="0" speed="3.65" length="1.44" shape="98.40,470.40 99.20,469.20"/>
    </edge>
    <edge id=":A3_20" function="internal">
        <lane id=":A3_20_0" index="0" speed="9.26" length="14.34" shape="99.11,465.44 99.15,465.15 101.40,461.40 105.15,459.15 110.40,458.40"/>
    </edge>
    <edge id=":A3_21" function="internal">
        <lane id=":A3_21_0" index="0" speed="3.65" length="3.23" shape="99.20,469.20 100.00,468.80 100.80,469.20 101.60,470.40"/>
    </edge>
    <edge id=":A3_5" function="internal">
        <lane id=":A3_5_0" index="0" speed="6.51" length="9.03" shape="110.40,464.80 107.95,465.15 106.20,466.20 105.15,467.95 104.80,470.40"/>
    </edge>
    <edge id=":A3_6" function="internal">
        <lane id=":A3_6_0" index="0" speed="13.89" length="20.80" shape="110.40,464.80 89.60,464.80"/>
        <lane id=":A3_6_1" index="1" speed="13.89" length="20.80" shape="110.40,461.60 89.60,461.60"/>
    </edge>
    <edge id=":A3_8" function="internal">
        <lane id=":A3_8_0" index="0" speed="9.26" length="19.35" shape="110.40,461.60 105.15,460.85 101.40,458.60 99.15,454.85 98.40,449.60"/>
    </edge>
    <edge id=":A3_9" function="internal">
        <lane id=":A3_9_0" index="0" speed="3.65" length="4.67" shape="110.40,461.60 109.20,460.80 108.80,460.00 109.20,459.20 110.40,458.40"/>
    </edge>
    <edge id=":A3_10" function="internal">
        <lane id=":A3_10_0" index="0" speed="6.51" length="9.03" shape="104.80,449.60 105.15,452.05 106.20,453.80 107.95,454.85 110.40,455.20"/>
    </edge>
    <edge id=":A3_11" function="internal">
        <lane id=":A3_11_0" index="0" speed="13.89" length="20.80" shape="104.80,449.60 104.80,470.40"/>
        <lane id=":A3_11_1" index="1" speed="13.89" length="20.80" shape="101.60,449.60 101.60,470.40"/>
    </edge>
    <edge id=":A3_13" function="internal">
        <lane id=":A3_13_0" index="0" speed="9.26" length="5.01" shape="101.60,449.60 100.89,454.56"/>
    </edge>
    <edge id=":A3_14" function="internal">
        <lane id=":A3_14_0" index="0" speed="3.65" length="1.44" shape="101.60,449.60 100.80,450.80"/>
    </edge>
    <edge id=":A3_22" function="internal">
        <lane id=":A3_22_0" index="0" speed="9.26" length="14.34" shape="100.89,454.56 100.85,454.85 98.60,458.60 94.85,460.85 89.60,461.60"/>
    </edge>
    <edge id=":A3_23" function="internal">
        <lane id=":A3_23_0" index="0" speed="3.65" length="3.23" shape="100.80,450.80 100.00,451.20 99.20,450.80 98.40,449.60"/>
    </edge>
    <edge id=":A3_15" function="internal">
        <lane id=":A3_15_0" index="0" speed="6.51" length="9.03" shape="89.60,455.20 92.05,454.85 93.80,453.80 94.85,452.05 95.20,449.60"/>
    </edge>
    <edge id=":A3_16" function="internal">
        <lane id=":A3_16_0" index="0" speed="13.89" length="20.80" shape="89.60,455.20 110.40,455.20"/>
        <lane id=":A3_16_1" index="1" speed="13.89" length="20.80" shape="89.60,458.40 110.40,458.40"/>
    </edge>
    <edge id=":A3_18" function="internal">
        <lane id=":A3_18_0" index="0" speed="9.26" length="19.35" shape="89.60,458.40 94.85,459.15 98.60,461.40 100.85,465.15 101.60,470.40"/>
    </edge>
    <edge id=":A3_19" function="internal">
        <lane id=":A3_19_0" index="0" speed="3.65" length="4.67" shape="89.60,458.40 90.80,459.20 91.20,460.00 90.80,460.80 89.60,461.60"/>
    </edge>
    <edge id=":A4_0" function="internal">
        <lane id=":A4_0_0" index="0" speed="6.51" length="9.03" shape="95.20,590.40 94.85,587.95 93.80,586.20 92.05,585.15 89.60,584.80"/>
    </edge>
    <edge id=":A4_1" function="internal">
        <lane id=":A4_1_0" index="0" speed="13.89" length="20.80" shape="95.20,590.40 95.20,569.60"/>
        <lane id=":A4_1_1" index="1" speed="13.89" length="20.80" shape="98.40,590.40 98.40,569.60"/>
    </edge>
    <edge id=":A4_3" function="internal">
        <lane id=":A4_3_0" index="0" speed="9.26" length="5.01" shape="98.40,590.40 99.11,585.44"/>
    </edge>
    <edge id=":A4_4" function="internal">
        <lane id=":A4_4_0" index="0" speed="3.65" length="1.44" shape="98.40,590.40 99.20,589.20"/>
    </edge>
    <edge id=":A4_20" function="internal">
        <lane id=":A4_20_0" index="0" speed="9.26" length="14.34" shape="99.11,585.44 99.15,585.15 101.40,581.40 105.15,579.15 110.40,578.40"/>
    </edge>
    <edge id=":A4_21" function="internal">
        <lane id=":A4_21_0" index="0" speed="3.65" length="3.23" shape="99.20,589.20 100.00,588.80 100.80,589.20 101.60,590.40"/>
    </edge>
    <edge id=":A4_5" function="internal">
        <lane id=":A4_5_0" index="0" speed="6.51" length="9.03" shape="110.40,584.80 107.95,585.15 106.20,586.20 105.15,587.95 104.80,590.40"/>
    </edge>
    <edge id=":A4_6" function="internal">
        <lane id=":A4_6_0" index="0" speed="13.89" length="20.80" shape="110.40,584.80 89.60,584.80"/>
        <lane id=":A4_6_1" index="1" speed="13.89" length="20.80" shape="110.40,581.60 89.60,581.60"/>
    </edge>
    <edge id=":A4_8" function="internal">
        <lane id=":A4_8_0" index="0" speed="9.26" length="19.35" shape="110.40,581.60 105.15,580.85 101.40,578.60 99.15,574.85 98.40,569.60"/>
    </edge>
    <edge id=":A4_9" function="internal">
        <lane id=":A4_9_0" index="0" speed="3.65" length="4.67" shape="110.40,581.60 109.20,580.80 108.80,580.00 109.20,579.20 110.40,578.40"/>
    </edge>
    <edge id=":A4_10" function="internal">
        <lane id=":A4_10_0" index="0" speed="6.51" length="9.03" shape="104.80,569.60 105.15,572.05 106.20,573.80 107.95,574.85 110.40,575.20"/>
    </edge>
    <edge id=":A4_11" function="internal">
        <lane id=":A4_11_0" index="0" speed="13.89" length="20.80" shape="104.80,569.60 104.80,590.40"/>
        <lane id=":A4_11_1" index="1" speed="13.89" length="20.80" shape="101.60,569.60 101.60,590.40"/>
    </edge>
    <edge id=":A4_13" function="internal">
        <lane id=":A4_13_0" index="0" speed="9.26" length="5.01" shape="101.60,569.60 100.89,574.56"/>
    </edge>
    <edge id=":A4_14" function="internal">
        <lane id=":A4_14_0" index="0" speed="3.65" length="1.44" shape="101.60,569.60 100.80,570.80"/>
    </edge>
    <edge id=":A4_22" function="internal">
        <lane id=":A4_22_0" index="0" speed="9.26" length="14.34" shape="100.89,574.56 100.85,574.85 98.60,578.60 94.85,580.85 89.60,581.60"/>
    </edge>
    <edge id=":A4_23" function="internal">
        <lane id=":A4_23_0" index="0" speed="3.65" length="3.23" shape="100.80,570.80 100.00,571.20 99.20,570.80 98.40,569.60"/>
    </edge>
    <edge id=":A4_15" function="internal">
        <lane id=":A4_15_0" index="0" speed="6.51" length="9.03" shape="89.60,575.20 92.05,574.85 93.80,573.80 94.85,572.05 95.20,569.60"/>
    </edge>
    <edge id=":A4_16" function="internal">
        <lane id=":A4_16_0" index="0" speed="13.89" length="20.80" shape="89.60,575.20 110.40,575.20"/>
        <lane id=":A4_16_1" index="1" speed="13.89" length="20.80" shape="89.60,578.40 110.40,578.40"/>
    </edge>
    <edge id=":A4_18" function="internal">
        <lane id=":A4_18_0" index="0" speed="9.26" length="19.35" shape="89.60,578.40 94.85,579.15 98.60,581.40 100.85,585.15 101.60,590.40"/>
    </edge>
    <edge id=":A4_19" function="internal">
        <lane id=":A4_19_0" index="0" speed="3.65" length="4.67" shape="89.60,578.40 90.80,579.20 91.20,580.00 90.80,580.80 89.60,581.60"/>
    </edge>
    <edge id=":A5_0" function="internal">
        <lane id=":A5_0_0" index="0" speed="6.51" length="9.03" shape="95.20,710.40 94.85,707.95 93.80,706.20 92.05,705.15 89.60,704.80"/>
    </edge>
    <edge id=":A5_1" function="internal">
        <lane id=":A5_1_0" index="0" speed="13.89" length="20.80" shape="95.20,710.40 95.20,689.60"/>
        <lane id=":A5_1_1" index="1" speed="13.89" length="20.80" shape="98.40,710.40 98.40,689.60"/>
    </edge>
    <edge id=":A5_3" function="internal">
        <lane id=":A5_3_0" index="0" speed="9.26" length="5.01" shape="98.40,710.40 99.11,705.44"/>
    </edge>
    <edge id=":A5_4" function="internal">
        <lane id=":A5_4_0" index="0" speed="3.65" length="1.44" shape="98.40,710.40 99.20,709.20"/>
    </edge>
    <edge id=":A5_20" function="internal">
        <lane id=":A5_20_0" index="0" speed="9.26" length="14.34" shape="99.11,705.44 99.15,705.15 101.40,701.40 105.15,699.15 110.40,698.40"/>
    </edge>
    <edge id=":A5_21" function="internal">
        <lane id=":A5_21_0" index="0" speed="3.65" length="3.23" shape="99.20,709.20 100.00,708.80 100.80,709.20 101.60,710.40"/>
    </edge>
    <edge id=":A5_5" function="internal">
        <lane id=":A5_5_0" index="0" speed="6.51" length="9.03" shape="110.40,704.80 107.95,705.15 106.20,706.20 105.15,707.95 104.80,710.40"/>
    </edge>
    <edge id=":A5_6" function="internal">
        <lane id=":A5_6_0" index="0" speed="13.89" length="20.80" shape="110.40,704.80 89.60,704.80"/>
        <lane id=":A5_6_1" index="1" speed="13.89" length="20.80" shape="110.40,701.60 89.60,701.60"/>
    </edge>
    <edge id=":A5_8" function="internal">
        <lane id=":A5_8_0" index="0" speed="9.26" length="19.35" shape="110.40,701.60 105.15,700.85 101.40,698.60 99.15,694.85 98.40,689.60"/>
    </edge>
    <edge id=":A5_9" function="internal">
        <lane id=":A5_9_0" index="0" speed="3.65" length="4.67" shape="110.40,701.60 109.20,700.80 108.80,700.00 109.20,699.20 110.40,698.40"/>
    </edge>
    <edge id=":A5_10" function="internal">
        <lane id=":A5_10_0" index="0" speed="6.51" length="9.03" shape="104.80,689.60 105.15,692.05 106.20,693.80 107.95,694.85 110.40,695.20"/>
    </edge>
    <edge id=":A5_11" function="internal">
        <lane id=":A5_11_0" index="0" speed="13.89" length="20.80" shape="104.80,689.60 104.80,710.40"/>
        <lane id=":A5_11_1" index="1" speed="13.89" length="20.80" shape="101.60,689.60 101.60,710.40"/>
    </edge>
    <edge id=":A5_13" function="internal">
        <lane id=":A5_13_0" index="0" speed="9.26" length="5.01" shape="101.60,689.60 100.89,694.56"/>
    </edge>
    <edge id=":A5_14" function="internal">
        <lane id=":A5_14_0" index="0" speed="3.65" length="1.44" shape="101.60,689.60 100.80,690.80"/>
    </edge>
    <edge id=":A5_22" function="internal">
        <lane id=":A5_22_0" index="0" speed="9.26" length="14.34" shape="100.89,694.56 100.85,694.85 98.60,698.60 94.85,700.85 89.60,701.60"/>
    </edge>
    <edge id=":A5_23" function="internal">
        <lane id=":A5_23_0" index="0" speed="3.65" length="3.23" shape="100.80,690.80 100.00,691.20 99.20,690.80 98.40,689.60"/>
    </edge>
    <edge id=":A5_15" function="internal">
        <lane id=":A5_15_0" index="0" speed="6.51" length="9.03" shape="89.60,695.20 92.05,694.85 93.80,693.80 94.85,692.05 95.20,689.60"/>
    </edge>
    <edge id=":A5_16" function="internal">
        <lane id=":A5_16_0" index="0" speed="13.89" length="20.80" shape="89.60,695.20 110.40,695.20"/>
        <lane id=":A5_16_1" index="1" speed="13.89" length="20.80" shape="89.60,698.40 110.40,698.40"/>
    </edge>
    <edge id=":A5_18" function="internal">
        <lane id=":A5_18_0" index="0" speed="9.26" length="19.35" shape="89.60,698.40 94.85,699.15 98.60,701.40 100.85,705.15 101.60,710.40"/>
    </edge>
    <edge id=":A5_19" function="internal">
        <lane id=":A5_19_0" index="0" speed="3.65" length="4.67" shape="89.60,698.40 90.80,699.20 91.20,700.00 90.80,700.80 89.60,701.60"/>
    </edge>
    <edge id=":A6_0" function="internal">
        <lane id=":A6_0_0" index="0" speed="6.51" length="9.03" shape="95.20,830.40 94.85,827.95 93.80,826.20 92.05,825.15 89.60,824.80"/>
    </edge>
    <edge id=":A6_1" function="internal">
        <lane id=":A6_1_0" index="0" speed="13.89" length="20.80" shape="95.20,830.40 95.20,809.60"/>
        <lane id=":A6_1_1" index="1" speed="13.89" length="20.80" shape="98.40,830.40 98.40,809.60"/>
    </edge>
    <edge id=":A6_3" function="internal">
        <lane id=":A6_3_0" index="0" speed="9.26" length="5.01" shape="98.40,830.40 99.11,825.44"/>
    </edge>
    <edge id=":A6_4" function="internal">
        <lane id=":A6_4_0" index="0" speed="3.65" length="1.44" shape="98.40,830.40 99.20,829.20"/>
    </edge>
    <edge id=":A6_20" function="internal">
        <lane id=":A6_20_0" index="0" speed="9.26" length="14.34" shape="99.11,825.44 99.15,825.15 101.40,821.40 105.15,819.15 110.40,818.40"/>
    </edge>
    <edge id=":A6_21" function="internal">
        <lane id=":A6_21_0" index="0" speed="3.65" length="3.23" shape="99.20,829.20 100.00,828.80 100.80,829.20 101.60,830.40"/>
    </edge>
    <edge id=":A6_5" function="internal">
        <lane id=":A6_5_0" index="0" speed="6.51" length="9.03" shape="110.40,824.80 107.95,825.15 106.20,826.20 105.15,827.95 104.80,830.40"/>
    </edge>
    <edge id=":A6_6" function="internal">
        <lane id=":A6_6_0" index="0" speed="13.89" length="20.80" shape="110.40,824.80 89.60,824.80"/>
        <lane id=":A6_6_1" index="1" speed="13.89" length="20.80" shape="110.40,821.60 89.60,821.60"/>
    </edge>
    <edge id=":A6_8" function="internal">
        <lane id=":A6_8_0" index="0" speed="9.26" length="19.35" shape="110.40,821.60 105.15,820.85 101.40,818.60 99.15,814.85 98.40,809.60"/>
    </edge>
    <edge id=":A6_9" function="internal">
        <lane id=":A6_9_0" index="0" speed="3.65" length="4.67" shape="110.40,821.60 109.20,820.80 108.80,820.00 109.20,819.20 110.40,818.40"/>
    </edge>
    <edge id=":A6_10" function="internal">
        <lane id=":A6_10_0" index="0" speed="6.51" length="9.03" shape="104.80,809.60 105.15,812.05 106.20,813.80 107.95,814.85 110.40,815.20"/>
    </edge>
    <edge id=":A6_11" function="internal">
        <lane id=":A6_11_0" index="0" speed="13.89" length="20.80" shape="104.80,809.60 104.80,830.40"/>
        <lane id=":A6_11_1" index="1" speed="13.89" length="20.80" shape="101.60,809.60 101.60,830.40"/>
    </edge>
    <edge id=":A6_13" function="internal">
        <lane id=":A6_13_0" index="0" speed="9.26" length="5.01" shape="101.60,809.60 100.89,814.56"/>
    </edge>
    <edge id=":A6_14" function="internal">
        <lane id=":A6_14_0" index="0" speed="3.65" length="1.44" shape="101.60,809.60 100.80,810.80"/>
    </edge>
    <edge id=":A6_22" function="internal">
        <lane id=":A6_22_0" index="0" speed="9.26" length="14.34" shape="100.89,814.56 100.85,814.85 98.60,818.60 94.85,820.85 89.60,821.60"/>
    </edge>
    <edge id=":A6_23" function="internal">
        <lane id=":A6_23_0" index="0" speed="3.65" length="3.23" shape="100.80,810.80 100.00,811.20 99.20,810.80 98.40,809.60"/>
    </edge>
    <edge id=":A6_15" function="internal">
        <lane id=":A6_15_0" index="0" speed="6.51" length="9.03" shape="89.60,815.20 92.05,814.85 93.80,813.80 94.85,812.05 95.20,809.60"/>
    </edge>
    <edge id=":A6_16" function="internal">
        <lane id=":A6_16_0" index="0" speed="13.89" length="20.80" shape="89.60,815.20 110.40,815.20"/>
        <lane id=":A6_16_1" index="1" speed="13.89" length="20.80" shape="89.60,818.40 110.40,818.40"/>
    </edge>
    <edge id=":A6_18" function="internal">
        <lane id=":A6_18_0" index="0" speed="9.26" length="19.35" shape="89.60,818.40 94.85,819.15 98.60,821.40 100.85,825.15 101.60,830.40"/>
    </edge>
    <edge id=":A6_19" function="internal">
        <lane id=":A6_19_0" index="0" speed="3.65" length="4.67" shape="89.60,818.40 90.80,819.20 91.20,820.00 90.80,820.80 89.60,821.60"/>
    </edge>
    <edge id=":A7_0" function="internal">
        <lane id=":A7_0_0" index="0" speed="6.51" length="9.03" shape="95.20,950.40 94.85,947.95 93.80,946.20 92.05,945.15 89.60,944.80"/>
    </edge>
    <edge id=":A7_1" function="internal">
        <lane id=":A7_1_0" index="0" speed="13.89" length="20.80" shape="95.20,950.40 95.20,929.60"/>
        <lane id=":A7_1_1" index="1" speed="13.89" length="20.80" shape="98.40,950.40 98.40,929.60"/>
    </edge>
    <edge id=":A7_3" function="internal">
        <lane id=":A7_3_0" index="0" speed="9.26" length="5.01" shape="98.40,950.40 99.11,945.44"/>