<?xml version='1.0' encoding='UTF-8'?>
<routes>
  <vehicle id="0" depart="0.00" departLane="best" departSpeed="max">
    <route edges="left6A6 A6A5 A5A4 A4A3 A3A2 A2A1 A1A0 A0bottom0" />
  </vehicle>
  <vehicle id="1" depart="0.30" departLane="best" departSpeed="max">
    <route edges="left3A3 A3A2 A2A1 A1B1 B1C1 C1D1 D1E1 E1F1 F1G1" />
    <stop parkingArea="pa_F1G1" duration="100000" />
  </vehicle>
  <vehicle id="2" depart="0.60" departLane="0" departSpeed="max" departPos="stop">
    <route edges="C7D7 D7D6 D6D5 D5D4 D4D3 D3D2 D2D1 D1D0 D0E0 E0bottom4" />
    <stop parkingArea="pa_C7D7" duration="5" />
  </vehicle>
  <vehicle id="3" depart="0.90" departLane="best" departSpeed="max">
    <route edges="bottom4E0 E0D0 D0C0 C0B0 B0A0 A0A1 A1A2 A2left2" />
  </vehicle>
  <vehicle id="4" depart="1.20" departLane="best" departSpeed="max">
    <route edges="bottom6G0 G0F0 F0E0 E0D0 D0C0 C0B0 B0B1 B1B2 B2B3 B3C3" />
    <stop parkingArea="pa_B3C3" duration="100000" />
  </vehicle>
  <vehicle id="5" depart="1.50" departLane="0" departSpeed="max" departPos="stop">
    <route edges="G3G4 G4F4 F4E4 E4D4 D4C4 C4B4 B4A4 A4A5 A5A6 A6A7 A7top0" />
    <stop parkingArea="pa_G3G4" duration="5" />
  </vehicle>
  <vehicle id="6" depart="1.80" departLane="best" departSpeed="max">
    <route edges="bottom2C0 C0C1 C1C2 C2C3 C3C4 C4C5 C5C6 C6C7 C7D7 D7E7 E7F7 F7G7 G7top6" />
  </vehicle>
  <vehicle id="7" depart="2.10" departLane="best" departSpeed="max">
    <route edges="bottom4E0 E0E1 E1E2 E2E3 E3E4 E4E5 E5E6 E6F6 F6G6 G6F6" />
    <stop parkingArea="pa_G6F6" duration="100000" />
  </vehicle>
  <vehicle id="8" depart="2.40" departLane="0" departSpeed="max" departPos="stop">
    <route edges="D4E4 E4E3 E3E2 E2E1 E1F1 F1G1 G1H1 H1right1" />
    <stop parkingArea="pa_D4E4" duration="5" />
  </vehicle>
  <vehicle id="9" depart="2.70" departLane="best" departSpeed="max">
    <route edges="bottom4E0 E0D0 D0D1 D1D2 D2D3 D3D4 D4D5 D5D6 D6D7 D7top3" />
  </vehicle>
  <vehicle id="10" depart="3.00" departLane="best" departSpeed="max">
    <route edges="right2H2 H2G2 G2F2 F2E2 E2D2 D2C2 C2B2 B2A2 A2A1 A1A0" />
    <stop parkingArea="pa_A1A0" duration="100000" />
  </vehicle>
  <vehicle id="11" depart="3.30" departLane="0" departSpeed="max" departPos="stop">
    <route edges="E5F5 F5E5 E5D5 D5D4 D4D3 D3D2 D2D1 D1D0 D0bottom3" />
    <stop parkingArea="pa_E5F5" duration="5" />
  </vehicle>
  <vehicle id="12" depart="3.60" departLane="best" departSpeed="max">
    <route edges="right1H1 H1H2 H2H3 H3H4 H4H5 H5H6 H6H7 H7top7" />
  </vehicle>
  <vehicle id="13" depart="3.90" departLane="best" departSpeed="max">
    <route edges="right5H5 H5G5 G5F5 F5E5 E5D5 D5C5 C5B5 B5B6 B6A6" />
    <stop parkingArea="pa_B6A6" duration="100000" />
  </vehicle>
  <vehicle id="14" depart="4.20" departLane="0" departSpeed="max" departPos="stop">
    <route edges="C3D3 D3D4 D4D5 D5E5 E5F5 F5G5 G5H5 H5right5" />
    <stop parkingArea="pa_C3D3" duration="5" />
  </vehicle>
  <vehicle id="15" depart="4.50" departLane="best" departSpeed="max">
    <route edges="top2C7 C7C6 C6D6 D6E6 E6F6 F6G6 G6H6 H6right6" />
  </vehicle>
  <vehicle id="16" depart="4.80" departLane="best" departSpeed="max">
    <route edges="bottom7H0 H0G0 G0F0 F0E0 E0D0 D0D1 D1D2 D2D3 D3D4 D4D5 D5D6 D6D5" />
    <stop parkingArea="pa_D6D5" duration="100000" />
  </vehicle>
  <vehicle id="17" depart="5.10" departLane="0" departSpeed="max" departPos="stop">
    <route edges="D5D6 D6C6 C6B6 B6B5 B5B4 B4B3 B3B2 B2B1 B1B0 B0bottom1" />
    <stop parkingArea="pa_D5D6" duration="5" />
  </vehicle>
  <vehicle id="18" depart="5.40" departLane="best" departSpeed="max">
    <route edges="bottom3D0 D0C0 C0B0 B0A0 A0A1 A1A2 A2A3 A3A4 A4A5 A5left5" />
  </vehicle>
  <vehicle id="19" depart="5.70" departLane="best" departSpeed="max">
    <route edges="right0H0 H0G0 G0F0 F0E0 E0E1 E1E2 E2E3 E3E4 E4E5 E5E6 E6E7 E7E6" />
    <stop parkingArea="pa_E7E6" duration="100000" />
  </vehicle>
  <vehicle id="20" depart="6.00" departLane="0" departSpeed="max" departPos="stop">
    <route edges="C5C6 C6B6 B6A6 A6A5 A5A4 A4A3 A3A2 A2A1 A1A0 A0left0" />
    <stop parkingArea="pa_C5C6" duration="5" />
  </vehicle>
  <vehicle id="21" depart="6.30" departLane="best" departSpeed="max">
    <route edges="bottom3D0 D0D1 D1D2 D2E2 E2F2 F2G2 G2H2 H2right2" />
  </vehicle>
  <vehicle id="22" depart="6.60" departLane="best" departSpeed="max">
    <route edges="right0H0 H0G0 G0F0 F0E0 E0E1 E1E2 E2E3 E3E4 E4E5 E5E6 E6F6" />
    <stop parkingArea="pa_E6F6" duration="100000" />
  </vehicle>
  <vehicle id="23" depart="6.90" departLane="0" departSpeed="max" departPos="stop">
    <route edges="A3B3 B3B2 B2B1 B1B0 B0C0 C0D0 D0E0 E0F0 F0G0 G0H0 H0bottom7" />
    <stop parkingArea="pa_A3B3" duration="5" />
  </vehicle>
  <vehicle id="24" depart="7.20" departLane="best" departSpeed="max">
    <route edges="right5H5 H5G5 G5F5 F5E5 E5D5 D5C5 C5B5 B5A5 A5left5" />
  </vehicle>
  <vehicle id="25" depart="7.50" departLane="best" departSpeed="max">
    <route edges="top4E7 E7D7 D7C7 C7C6 C6C5 C5C4 C4C3 C3C2 C2C1 C1C0 C0B0" />
    <stop parkingArea="pa_C0B0" duration="100000" />
  </vehicle>
  <vehicle id="26" depart="7.80" departLane="0" departSpeed="max" departPos="stop">
    <route edges="G5F5 F5F4 F4F3 F3F2 F2F1 F1F0 F0G0 G0bottom6" />
    <stop parkingArea="pa_G5F5" duration="5" />
  </vehicle>
  <vehicle id="27" depart="8.10" departLane="best" departSpeed="max">
    <route edges="left7A7 A7A6 A6A5 A5A4 A4A3 A3A2 A2A1 A1A0 A0B0 B0C0 C0bottom2" />
  </vehicle>
  <vehicle id="28" depart="8.40" departLane="best" departSpeed="max">
    <route edges="top0A7 A7A6 A6A5 A5A4 A4A3 A3A2 A2B2 B2C2 C2D2 D2E2 E2F2 F2G2" />
    <stop parkingArea="pa_F2G2" duration="100000" />
  </vehicle>
  <vehicle id="29" depart="8.70" departLane="0" departSpeed="max" departPos="stop">
    <route edges="G3H3 H3G3 G3F3 F3E3 E3E4 E4E5 E5E6 E6E7 E7top4" />
    <stop parkingArea="pa_G3H3" duration="5" />
  </vehicle>
  <vehicle id="30" depart="9.00" departLane="best" departSpeed="max">
    <route edges="left4A4 A4A5 A5B5 B5C5 C5D5 D5E5 E5F5 F5G5 G5H5 H5right5" />
  </vehicle>
  <vehicle id="31" depart="9.30" departLane="best" departSpeed="max">
    <route edges="top6G7 G7F7 F7E7 E7D7 D7D6 D6D5 D5D4 D4D3 D3D2 D2C2" />
    <stop parkingArea="pa_D2C2" duration="100000" />
  </vehicle>
  <vehicle id="32" depart="9.60" departLane="0" departSpeed="max" departPos="stop">
    <route edges="A3A4 A4A5 A5B5 B5C5 C5D5 D5E5 E5F5 F5G5 G5H5 H5right5" />
    <stop parkingArea="pa_A3A4" duration="5" />
  </vehicle>
  <vehicle id="33" depart="9.90" departLane="best" departSpeed="max">
    <route edges="left0A0 A0A1 A1A2 A2A3 A3A4 A4B4 B4C4 C4D4 D4E4 E4F4 F4G4 G4H4 H4right4" />
  </vehicle>
  <vehicle id="34" depart="10.20" departLane="best" departSpeed="max">
    <route edges="left7A7 A7A6 A6A5 A5A4 A4A3 A3A2 A2A1 A1B1 B1C1 C1D1 D1E1 E1F1 F1F0" />
    <stop parkingArea="pa_F1F0" duration="100000" />
  </vehicle>
  <vehicle id="35" depart="10.50" departLane="0" departSpeed="max" departPos="stop">
    <route edges="A4A5 A5A6 A6B6 B6C6 C6D6 D6E6 E6F6 F6G6 G6H6 H6right6" />
    <stop parkingArea="pa_A4A5" duration="5" />
  </vehicle>
  <vehicle id="36" depart="10.80" departLane="best" departSpeed="max">
    <route edges="left3A3 A3A4 A4A5 A5A6 A6A7 A7B7 B7C7 C7D7 D7E7 E7top4" />
  </vehicle>
  <vehicle id="37" depart="11.10" departLane="best" departSpeed="max">
    <route edges="right5H5 H5G5 G5F5 F5E5 E5D5 D5D6 D6D7 D7E7" />
    <stop parkingArea="pa_D7E7" duration="100000" />
  </vehicle>
  <vehicle id="38" depart="11.40" departLane="0" departSpeed="max" departPos="stop">
    <route edges="B4B3 B3B4 B4C4 C4D4 D4E4 E4F4 F4G4 G4H4 H4right4" />
    <stop parkingArea="pa_B4B3" duration="5" />
  </vehicle>
  <vehicle id="39" depart="11.70" departLane="best" departSpeed="max">
    <route edges="bottom4E0 E0E1 E1E2 E2E3 E3E4 E4E5 E5F5 F5G5 G5H5 H5right5" />
  </vehicle>
  <vehicle id="40" depart="12.00" departLane="best" departSpeed="max">
    <route edges="bottom1B0 B0B1 B1B2 B2B3 B3B4 B4B5 B5B6 B6B7 B7C7 C7D7 D7E7 E7F7 F7F6" />
    <stop parkingArea="pa_F7F6" duration="100000" />
  </vehicle>
  <vehicle id="41" depart="12.30" departLane="0" departSpeed="max" departPos="stop">
    <route edges="G5H5 H5G5 G5F5 F5E5 E5D5 D5D4 D4D3 D3D2 D2D1 D1D0 D0bottom3" />
    <stop parkingArea="pa_G5H5" duration="5" />
  </vehicle>
  <vehicle id="42" depart="12.60" departLane="best" departSpeed="max">
    <route edges="bottom6G0 G0F0 F0E0 E0D0 D0C0 C0B0 B0A0 A0A1 A1A2 A2left2" />
  </vehicle>
  <vehicle id="43" depart="12.90" departLane="best" departSpeed="max">
    <route edges="top6G7 G7F7 F7E7 E7E6 E6E5 E5E4 E4E3 E3E2 E2F2" />
    <stop parkingArea="pa_E2F2" duration="100000" />
  </vehicle>
  <vehicle id="44" depart="13.20" departLane="0" departSpeed="max" departPos="stop">
    <route edges="C2C3 C3C4 C4C5 C5D5 D5E5 E5F5 F5G5 G5H5 H5right5" />
    <stop parkingArea="pa_C2C3" duration="5" />
  </vehicle>
  <vehicle id="45" depart="13.50" departLane="best" departSpeed="max">
    <route edges="left7A7 A7A6 A6A5 A5A4 A4A3 A3A2 A2A1 A1A0 A0B0 B0bottom1" />
  </vehicle>
  <vehicle id="46" depart="13.80" departLane="best" departSpeed="max">
    <route edges="bottom7H0 H0G0 G0F0 F0E0 E0D0 D0D1 D1D2 D2D3 D3D4 D4D5" />
    <stop parkingArea="pa_D4D5" duration="100000" />
  </vehicle>
  <vehicle id="47" depart="14.10" departLane="0" departSpeed="max" departPos="stop">
    <route edges="F0G0 G0F0 F0F1 F1F2 F2F3 F3F4 F4F5 F5F6 F6F7 F7top5" />
    <stop parkingArea="pa_F0G0" duration="5" />
  </vehicle>
  <vehicle id="48" depart="14.40" departLane="best" departSpeed="max">
    <route edges="top1B7 B7A7 A7A6 A6A5 A5A4 A4A3 A3A2 A2left2" />
  </vehicle>
  <vehicle id="49" depart="14.70" departLane="best" departSpeed="max">
    <route edges="top0A7 A7A6 A6A5 A5A4 A4A3 A3A2 A2B2 B2C2 C2D2 D2E2 E2F2 F2G2 G2H2" />
    <stop parkingArea="pa_G2H2" duration="100000" />
  </vehicle>
  <vehicle id="50" depart="15.00" departLane="0" departSpeed="max" departPos="stop">
    <route edges="F1E1 E1D1 D1C1 C1B1 B1A1 A1A2 A2A3 A3A4 A4A5 A5A6 A6A7 A7top0" />
    <stop parkingArea="pa_F1E1" duration="5" />
  </vehicle>
  <vehicle id="51" depart="15.30" departLane="best" departSpeed="max">
    <route edges="left2A2 A2A1 A1B1 B1C1 C1D1 D1E1 E1F1 F1G1 G1H1 H1right1" />
  </vehicle>
  <vehicle id="52" depart="15.60" departLane="best" departSpeed="max">
    <route edges="left6A6 A6A5 A5A4 A4A3 A3A2 A2B2 B2C2 C2C1" />
    <stop parkingArea="pa_C2C1" duration="100000" />
  </vehicle>
  <vehicle id="53" depart="15.90" departLane="0" departSpeed="max" departPos="stop">
    <route edges="E2D2 D2D3 D3D4 D4D5 D5D6 D6D7 D7E7 E7F7 F7top5" />
    <stop parkingArea="pa_E2D2" duration="5" />
  </vehicle>
  <vehicle id="54" depart="16.20" departLane="best" departSpeed="max">
    <route edges="bottom0A0 A0A1 A1B1 B1C1 C1D1 D1E1 E1F1 F1G1 G1H1 H1right1" />
  </vehicle>
  <vehicle id="55" depart="16.50" departLane="best" departSpeed="max">
    <route edges="right4H4 H4G4 G4F4 F4E4 E4D4 D4C4 C4B4 B4A4 A4B4" />
    <stop parkingArea="pa_A4B4" duration="100000" />
  </vehicle>
  <vehicle id="56" depart="16.80" departLane="0" departSpeed="max" departPos="stop">
    <route edges="E6D6 D6C6 C6B6 B6A6 A6A5 A5A4 A4A3 A3A2 A2A1 A1A0 A0bottom0" />
    <stop parkingArea="pa_E6D6" duration="5" />
  </vehicle>
  <vehicle id="57" depart="17.10" departLane="best" departSpeed="max">
    <route edges="right0H0 H0H1 H1H2 H2H3 H3H4 H4H5 H5H6 H6right6" />
  </vehicle>
  <vehicle id="58" depart="17.40" departLane="best" departSpeed="max">
    <route edges="right6H6 H6G6 G6F6 F6E6 E6D6 D6C6 C6B6 B6B5 B5C5" />
    <stop parkingArea="pa_B5C5" duration="100000" />
  </vehicle>
  <vehicle id="59" depart="17.70" departLane="0" departSpeed="max" departPos="stop">
    <route edges="F5E5 E5D5 D5C5 C5B5 B5A5 A5A4 A4A3 A3A2 A2A1 A1A0 A0bottom0" />
    <stop parkingArea="pa_F5E5" duration="5" />
  </vehicle>
  <vehicle id="60" depart="18.00" departLane="best" departSpeed="max">
    <route edges="top7H7 H7G7 G7F7 F7E7 E7D7 D7C7 C7B7 B7A7 A7top0" />
  </vehicle>
  <vehicle id="61" depart="18.30" departLane="best" departSpeed="max">
    <route edges="right0H0 H0G0 G0F0 F0E0 E0D0 D0C0 C0B0 B0A0 A0A1 A1A2 A2A3 A3A4 A4A5 A5B5" />
    <stop parkingArea="pa_A5B5" duration="100000" />
  </vehicle>
  <vehicle id="62" depart="18.60" departLane="0" departSpeed="max" departPos="stop">
    <route edges="C7B7 B7B6 B6B5 B5B4 B4B3 B3B2 B2B1 B1B0 B0C0 C0D0 D0E0 E0F0 F0G0 G0H0 H0bottom7" />
    <stop parkingArea="pa_C7B7" duration="5" />
  </vehicle>
  <vehicle id="63" depart="18.90" departLane="best" departSpeed="max">
    <route edges="left4A4 A4A3 A3A2 A2A1 A1A0 A0B0 B0C0 C0D0 D0E0 E0F0 F0bottom5" />
  </vehicle>
  <vehicle id="64" depart="19.20" departLane="best" departSpeed="max">
    <route edges="left7A7 A7A6 A6A5 A5A4 A4A3 A3A2 A2A1 A1A0 A0B0 B0C0 C0D0 D0E0" />
    <stop parkingArea="pa_D0E0" duration="100000" />
  </vehicle>
  <vehicle id="65" depart="19.50" departLane="0" departSpeed="max" departPos="stop">
    <route edges="C6D6 D6D5 D5D4 D4D3 D3D2 D2D1 D1D0 D0E0 E0F0 F0bottom5" />
    <stop parkingArea="pa_C6D6" duration="5" />
  </vehicle>
  <vehicle id="66" depart="19.80" departLane="best" departSpeed="max">
    <route edges="top6G7 G7F7 F7E7 E7D7 D7C7 C7B7 B7B6 B6B5 B5B4 B4B3 B3B2 B2B1 B1B0 B0bottom1" />
  </vehicle>
  <vehicle id="67" depart="20.10" departLane="best" departSpeed="max">
    <route edges="right2H2 H2G2 G2F2 F2E2 E2D2 D2D3 D3D4 D4D3" />
    <stop parkingArea="pa_D4D3" duration="100000" />
  </vehicle>
  <vehicle id="68" depart="20.40" departLane="0" departSpeed="max" departPos="stop">
    <route edges="H3G3 G3F3 F3E3 E3D3 D3C3 C3B3 B3A3 A3A2 A2A1 A1A0 A0bottom0" />
    <stop parkingArea="pa_H3G3" duration="5" />
  </vehicle>
  <vehicle id="69" depart="20.70" departLane="best" departSpeed="max">
    <route edges="bottom3D0 D0C0 C0B0 B0A0 A0A1 A1A2 A2A3 A3A4 A4left4" />
  </vehicle>
  <vehicle id="70" depart="21.00" departLane="best" departSpeed="max">
    <route edges="bottom5F0 F0E0 E0D0 D0C0 C0B0 B0B1 B1B2 B2A2" />
    <stop parkingArea="pa_B2A2" duration="100000" />
  </vehicle>
  <vehicle id="71" depart="21.30" departLane="0" departSpeed="max" departPos="stop">
    <route edges="C3C2 C2C3 C3C4 C4C5 C5C6 C6C7 C7D7 D7E7 E7F7 F7G7 G7H7 H7top7" />
    <stop parkingArea="pa_C3C2" duration="5" />
  </vehicle>
  <vehicle id="72" depart="21.60" departLane="best" departSpeed="max">
    <route edges="bottom4E0 E0D0 D0D1 D1D2 D2D3 D3D4 D4D5 D5D6 D6D7 D7top3" />
  </vehicle>
  <vehicle id="73" depart="21.90" departLane="best" departSpeed="max">
    <route edges="top1B7 B7B6 B6B5 B5C5 C5D5 D5E5 E5F5 F5G5 G5H5 H5G5" />
    <stop parkingArea="pa_H5G5" duration="100000" />
  </vehicle>
  <vehicle id="74" depart="22.20" departLane="0" departSpeed="max" departPos="stop">
    <route edges="D5E5 E5D5 D5C5 C5B5 B5A5 A5A4 A4A3 A3A2 A2A1 A1A0 A0bottom0" />
    <stop parkingArea="pa_D5E5" duration="5" />
  </vehicle>
  <vehicle id="75" depart="22.50" departLane="best" departSpeed="max">
    <route edges="left7A7 A7A6 A6A5 A5A4 A4A3 A3A2 A2A1 A1left1" />
  </vehicle>
  <vehicle id="76" depart="22.80" departLane="best" departSpeed="max">
    <route edges="right5H5 H5G5 G5F5 F5E5 E5D5 D5C5 C5B5 B5A5 A5A6 A6A7 A7B7" />
    <stop parkingArea="pa_A7B7" duration="100000" />
  </vehicle>
  <vehicle id="77" depart="23.10" departLane="0" departSpeed="max" departPos="stop">
    <route edges="A0A1 A1A2 A2A3 A3A4 A4B4 B4C4 C4D4 D4E4 E4F4 F4G4 G4H4 H4right4" />
    <stop parkingArea="pa_A0A1" duration="5" />
  </vehicle>
  <vehicle id="78" depart="23.40" departLane="best" departSpeed="max">
    <route edges="right4H4 H4G4 G4F4 F4E4 E4E3 E3E2 E2E1 E1E0 E0bottom4" />
  </vehicle>
  <vehicle id="79" depart="23.70" departLane="best" departSpeed="max">
    <route edges="bottom4E0 E0E1 E1E2 E2E3 E3E4 E4E5 E5E6 E6E7 E7F7 F7E7" />
    <stop parkingArea="pa_F7E7" duration="100000" />
  </vehicle>
  <vehicle id="80" depart="24.00" departLane="0" departSpeed="max" departPos="stop">
    <route edges="E2E3 E3D3 D3C3 C3B3 B3A3 A3A2 A2A1 A1A0 A0bottom0" />
    <stop parkingArea="pa_E2E3" duration="5" />
  </vehicle>
  <vehicle id="81" depart="24.30" departLane="best" departSpeed="max">
    <route edges="left5A5 A5A4 A4A3 A3A2 A2A1 A1A0 A0B0 B0C0 C0D0 D0E0 E0F0 F0G0 G0bottom6" />
  </vehicle>
  <vehicle id="82" depart="24.60" departLane="best" departSpeed="max">
    <route edges="left3A3 A3A2 A2B2 B2C2 C2D2 D2E2 E2F2 F2G2 G2G1" />
    <stop parkingArea="pa_G2G1" duration="100000" />
  </vehicle>
  <vehicle id="83" depart="24.90" departLane="0" departSpeed="max" departPos="stop">
    <route edges="G0H0 H0G0 G0F0 F0E0 E0D0 D0D1 D1D2 D2D3 D3D4 D4D5 D5D6 D6D7 D7top3" />
    <stop parkingArea="pa_G0H0" duration="5" />
  </vehicle>
  <vehicle id="84" depart="25.20" departLane="best" departSpeed="max">
    <route edges="left7A7 A7A6 A6A5 A5A4 A4A3 A3A2 A2A1 A1A0 A0B0 B0C0 C0D0 D0E0 E0bottom4" />
  </vehicle>
  <vehicle id="85" depart="25.50" departLane="best" departSpeed="max">
    <route edges="top6G7 G7F7 F7E7 E7D7 D7C7 C7B7 B7B6 B6B5 B5B4 B4B3 B3B2 B2B1" />
    <stop parkingArea="pa_B2B1" duration="100000" />
  </vehicle>
  <vehicle id="86" depart="25.80" departLane="0" departSpeed="max" departPos="stop">
    <route edges="G2G3 G3F3 F3E3 E3D3 D3C3 C3B3 B3B2 B2B1 B1B0 B0bottom1" />
    <stop parkingArea="pa_G2G3" duration="5" />
  </vehicle>
  <vehicle id="87" depart="26.10" departLane="best" departSpeed="max">
    <route edges="right4H4 H4G4 G4F4 F4E4 E4D4 D4C4 C4B4 B4A4 A4A3 A3left3" />
  </vehicle>
  <vehicle id="88" depart="26.40" departLane="best" departSpeed="max">
    <route edges="left5A5 A5A6 A6B6 B6C6 C6D6 D6E6 E6F6 F6F7" />
    <stop parkingArea="pa_F6F7" duration="100000" />
  </vehicle>
  <vehicle id="89" depart="26.70" departLane="0" departSpeed="max" departPos="stop">
    <route edges="B4A4 A4A3 A3A2 A2A1 A1B1 B1C1 C1D1 D1E1 E1F1 F1G1 G1H1 H1right1" />
    <stop parkingArea="pa_B4A4" duration="5" />
  </vehicle>
  <vehicle id="90" depart="27.00" departLane="best" departSpeed="max">
    <route edges="bottom0A0 A0A1 A1A2 A2A3 A3A4 A4A5 A5A6 A6B6 B6C6 C6D6 D6E6 E6F6 F6G6 G6H6 H6right6" />
  </vehicle>
  <vehicle id="91" depart="27.30" departLane="best" departSpeed="max">
    <route edges="left3A3 A3A2 A2A1 A1B1 B1C1 C1D1 D1E1 E1F1 F1G1 G1G0" />
    <stop parkingArea="pa_G1G0" duration="100000" />
  </vehicle>
  <vehicle id="92" depart="27.60" departLane="0" departSpeed="max" departPos="stop">
    <route edges="F5G5 G5F5 F5E5 E5D5 D5D4 D4D3 D3D2 D2D1 D1D0 D0bottom3" />
    <stop parkingArea="pa_F5G5" duration="5" />
  </vehicle>
  <vehicle id="93" depart="27.90" departLane="best" departSpeed="max">
    <route edges="bottom6G0 G0F0 F0E0 E0D0 D0C0 C0B0 B0A0 A0A1 A1A2 A2A3 A3left3" />
  </vehicle>
  <vehicle id="94" depart="28.20" departLane="best" departSpeed="max">
    <route edges="top7H7 H7G7 G7F7 F7E7 E7D7 D7C7 C7B7 B7A7 A7A6 A6A5 A5A4 A4A3 A3A2 A2A1 A1B1" />
    <stop parkingArea="pa_A1B1" duration="100000" />
  </vehicle>
  <vehicle id="95" depart="28.50" departLane="0" departSpeed="max" departPos="stop">
    <route edges="F6E6 E6E5 E5E4 E4E3 E3E2 E2E1 E1E0 E0bottom4" />
    <stop parkingArea="pa_F6E6" duration="5" />
  </vehicle>
  <vehicle id="96" depart="28.80" departLane="best" departSpeed="max">
    <route edges="left5A5 A5A4 A4A3 A3A2 A2A1 A1A0 A0B0 B0C0 C0D0 D0E0 E0bottom4" />
  </vehicle>
  <vehicle id="97" depart="29.10" departLane="best" departSpeed="max">
    <route edges="right0H0 H0G0 G0F0 F0E0 E0D0 D0C0 C0B0 B0B1 B1B2 B2B3 B3B4 B4B5 B5B4" />
    <stop parkingArea="pa_B5B4" duration="100000" />
  </vehicle>
  <vehicle id="98" depart="29.40" departLane="0" departSpeed="max" departPos="stop">
    <route edges="B3B2 B2B3 B3B4 B4C4 C4D4 D4E4 E4F4 F4G4 G4H4 H4right4" />
    <stop parkingArea="pa_B3B2" duration="5" />
  </vehicle>
  <vehicle id="99" depart="29.70" departLane="best" departSpeed="max">
    <route edges="left0A0 A0B0 B0C0 C0D0 D0E0 E0F0 F0G0 G0H0 H0bottom7" />
  </vehicle>
  <vehicle id="100" depart="30.00" departLane="best" departSpeed="max">
    <route edges="right6H6 H6G6 G6F6 F6E6 E6D6 D6C6 C6B6 B6B7" />
    <stop parkingArea="pa_B6B7" duration="100000" />
  </vehicle>
  <vehicle id="101" depart="30.30" departLane="0" departSpeed="max" departPos="stop">
    <route edges="D6C6 C6C5 C5C4 C4C3 C3C2 C2C1 C1C0 C0D0 D0E0 E0F0 F0bottom5" />
    <stop parkingArea="pa_D6C6" duration="5" />
  </vehicle>
  <vehicle id="102" depart="30.60" departLane="best" departSpeed="max">
    <route edges="bottom4E0 E0D0 D0D1 D1D2 D2D3 D3D4 D4D5 D5D6 D6D7 D7top3" />
  </vehicle>
  <vehicle id="103" depart="30.90" departLane="best" departSpeed="max">
    <route edges="bottom6G0 G0F0 F0E0 E0D0 D0C0 C0B0 B0A0 A0A1 A1A2 A2A1" />
    <stop parkingArea="pa_A2A1" duration="100000" />
  </vehicle>
  <vehicle id="104" depart="31.20" departLane="0" departSpeed="max" departPos="stop">
    <route edges="E3D3 D3C3 C3B3 B3B4 B4B5 B5B6 B6B7 B7top1" />
    <stop parkingArea="pa_E3D3" duration="5" />
  </vehicle>
  <vehicle id="105" depart="31.50" departLane="best" departSpeed="max">
    <route edges="right7H7 H7G7 G7F7 F7F6 F6F5 F5F4 F4F3 F3F2 F2F1 F1F0 F0bottom5" />
  </vehicle>
  <vehicle id="106" depart="31.80" departLane="best" departSpeed="max">
    <route edges="bottom7H0 H0G0 G0F0 F0E0 E0D0 D0C0 C0C1 C1C2 C2C3 C3C4 C4C5 C5C6 C6C7" />
    <stop parkingArea="pa_C6C7" duration="100000" />
  </vehicle>
  <vehicle id="107" depart="32.10" departLane="0" departSpeed="max" departPos="stop">
    <route edges="H4H5 H5G5 G5F5 F5E5 E5D5 D5C5 C5B5 B5A5 A5A6 A6A7 A7left7" />
    <stop parkingArea="pa_H4H5" duration="5" />
  </vehicle>
  <vehicle id="108" depart="32.40" departLane="best" departSpeed="max">
    <route edges="left2A2 A2A3 A3A4 A4A5 A5B5 B5C5 C5D5 D5E5 E5F5 F5G5 G5H5 H5right5" />
  </vehicle>
  <vehicle id="109" depart="32.70" departLane="best" departSpeed="max">
    <route edges="bottom5F0 F0E0 E0D0 D0C0 C0B0 B0A0 A0A1 A1A2" />
    <stop parkingArea="pa_A1A2" duration="100000" />
  </vehicle>
  <vehicle id="110" depart="33.00" departLane="0" departSpeed="max" departPos="stop">
    <route edges="H6G6 G6F6 F6F5 F5F4 F4F3 F3F2 F2F1 F1F0 F0bottom5" />
    <stop parkingArea="pa_H6G6" duration="5" />
  </vehicle>
  <vehicle id="111" depart="33.30" departLane="best" departSpeed="max">
    <route edges="right3H3 H3G3 G3F3 F3E3 E3D3 D3C3 C3B3 B3A3 A3A2 A2A1 A1A0 A0bottom0" />
  </vehicle>
  <vehicle id="112" depart="33.60" departLane="best" departSpeed="max">
    <route edges="top7H7 H7G7 G7F7 F7E7 E7D7 D7C7 C7B7 B7A7 A7A6 A6A5 A5A6" />
    <stop parkingArea="pa_A5A6" duration="100000" />
  </vehicle>
  <vehicle id="113" depart="33.90" departLane="0" departSpeed="max" departPos="stop">
    <route edges="B2C2 C2B2 B2A2 A2A3 A3A4 A4A5 A5A6 A6left6" />
    <stop parkingArea="pa_B2C2" duration="5" />
  </vehicle>
  <vehicle id="114" depart="34.20" departLane="best" departSpeed="max">
    <route edges="right3H3 H3G3 G3F3 F3E3 E3D3 D3C3 C3B3 B3A3 A3A4 A4A5 A5left5" />
  </vehicle>
  <vehicle id="115" depart="34.50" departLane="best" departSpeed="max">
    <route edges="bottom0A0 A0A1 A1A2 A2A3 A3A4 A4A5 A5B5 B5C5 C5D5 D5E5 E5F5 F5G5 G5H5 H5H4" />
    <stop parkingArea="pa_H5H4" duration="100000" />
  </vehicle>
  <vehicle id="116" depart="34.80" departLane="0" departSpeed="max" departPos="stop">
    <route edges="G0F0 F0F1 F1F2 F2F3 F3F4 F4F5 F5F6 F6G6 G6H6 H6right6" />
    <stop parkingArea="pa_G0F0" duration="5" />
  </vehicle>
  <vehicle id="117" depart="35.10" departLane="best" departSpeed="max">
    <route edges="bottom7H0 H0G0 G0F0 F0E0 E0D0 D0C0 C0B0 B0A0 A0A1 A1A2 A2A3 A3A4 A4A5 A5left5" />
  </vehicle>
  <vehicle id="118" depart="35.40" departLane="best" departSpeed="max">
    <route edges="top6G7 G7F7 F7E7 E7E6 E6E5 E5E4 E4E3 E3E2 E2E1 E1D1" />
    <stop parkingArea="pa_E1D1" duration="100000" />
  </vehicle>
  <vehicle id="119" depart="35.70" departLane="0" departSpeed="max" departPos="stop">
    <route edges="F3E3 E3E4 E4E5 E5E6 E6E7 E7F7 F7G7 G7H7 H7top7" />
    <stop parkingArea="pa_F3E3" duration="5" />
  </vehicle>
  <vehicle id="120" depart="36.00" departLane="best" departSpeed="max">
    <route edges="left1A1 A1A2 A2A3 A3A4 A4A5 A5A6 A6A7 A7B7 B7C7 C7D7 D7E7 E7top4" />
  </vehicle>
  <vehicle id="121" depart="36.30" departLane="best" departSpeed="max">
    <route edges="right7H7 H7H6 H6H5 H5H4 H4H3 H3H2 H2H1 H1H2" />
    <stop parkingArea="pa_H1H2" duration="100000" />
  </vehicle>
  <vehicle id="122" depart="36.60" departLane="best" departSpeed="max">
    <route edges="right2H2 H2G2 G2F2 F2E2 E2D2 D2C2 C2C3 C3C4 C4C5 C5C6 C6C7 C7top2" />
  </vehicle>
  <vehicle id="123" depart="36.90" departLane="best" departSpeed="max">
    <route edges="top7H7 H7G7 G7F7 F7F6 F6F5 F5F4 F4F3 F3F2 F2F1 F1G1" />
    <stop parkingArea="pa_F1G1" duration="100000" />
  </vehicle>
  <vehicle id="124" depart="37.20" departLane="best" departSpeed="max">
    <route edges="right5H5 H5G5 G5F5 F5E5 E5D5 D5C5 C5C6 C6C7 C7top2" />
  </vehicle>
  <vehicle id="125" depart="37.50" departLane="best" departSpeed="max">
    <route edges="right1H1 H1G1 G1F1 F1E1 E1D1 D1C1 C1B1 B1B2 B2B3 B3C3" />
    <stop parkingArea="pa_B3C3" duration="100000" />
  </vehicle>
  <vehicle id="126" depart="37.80" departLane="best" departSpeed="max">
    <route edges="right0H0 H0H1 H1H2 H2H3 H3H4 H4H5 H5H6 H6H7 H7top7" />
  </vehicle>
  <vehicle id="127" depart="38.10" departLane="best" departSpeed="max">
    <route edges="left3A3 A3A4 A4A5 A5A6 A6B6 B6C6 C6D6 D6E6 E6F6 F6G6 G6F6" />
    <stop parkingArea="pa_G6F6" duration="100000" />
  </vehicle>
  <vehicle id="128" depart="38.40" departLane="best" departSpeed="max">
    <route edges="right0H0 H0G0 G0F0 F0E0 E0D0 D0C0 C0B0 B0A0 A0A1 A1A2 A2left2" />
  </vehicle>
  <vehicle id="129" depart="38.70" departLane="best" departSpeed="max">
    <route edges="right1H1 H1G1 G1F1 F1E1 E1D1 D1C1 C1B1 B1A1 A1A0" />
    <stop parkingArea="pa_A1A0" duration="100000" />
  </vehicle>
  <vehicle id="130" depart="39.00" departLane="best" departSpeed="max">
    <route edges="bottom5F0 F0F1 F1F2 F2F3 F3F4 F4G4 G4H4 H4right4" />
  </vehicle>
  <vehicle id="131" depart="39.30" departLane="best" departSpeed="max">
    <route edges="left0A0 A0A1 A1A2 A2A3 A3A4 A4A5 A5A6 A6B6 B6A6" />
    <stop parkingArea="pa_B6A6" duration="100000" />
  </vehicle>
  <vehicle id="132" depart="39.60" departLane="best" departSpeed="max">
    <route edges="right1H1 H1G1 G1F1 F1E1 E1D1 D1C1 C1B1 B1A1 A1left1" />
  </vehicle>
  <vehicle id="133" depart="39.90" departLane="best" departSpeed="max">
    <route edges="bottom3D0 D0D1 D1D2 D2D3 D3D4 D4D5 D5D6 D6D5" />
    <stop parkingArea="pa_D6D5" duration="100000" />
  </vehicle>
  <vehicle id="134" depart="40.20" departLane="best" departSpeed="max">
    <route edges="bottom0A0 A0A1 A1A2 A2A3 A3A4 A4A5 A5A6 A6A7 A7B7 B7C7 C7D7 D7E7 E7F7 F7G7 G7top6" />
  </vehicle>
  <vehicle id="135" depart="40.50" departLane="best" departSpeed="max">
    <route edges="bottom2C0 C0C1 C1C2 C2C3 C3C4 C4C5 C5C6 C6C7 C7D7 D7E7 E7E6" />
    <stop parkingArea="pa_E7E6" duration="100000" />
  </vehicle>
  <vehicle id="136" depart="40.80" departLane="best" departSpeed="max">
    <route edges="left2A2 A2A3 A3A4 A4A5 A5B5 B5C5 C5D5 D5E5 E5F5 F5G5 G5H5 H5right5" />
  </vehicle>
  <vehicle id="137" depart="41.10" departLane="best" departSpeed="max">
    <route edges="left3A3 A3A4 A4A5 A5A6 A6B6 B6C6 C6D6 D6E6 E6F6" />
    <stop parkingArea="pa_E6F6" duration="100000" />
  </vehicle>
  <vehicle id="138" depart="41.40" departLane="best" departSpeed="max">
    <route edges="top3D7 D7C7 C7B7 B7A7 A7A6 A6A5 A5A4 A4A3 A3A2 A2A1 A1A0 A0bottom0" />
  </vehicle>
  <vehicle id="139" depart="41.70" departLane="best" departSpeed="max">
    <route edges="top5F7 F7E7 E7D7 D7C7 C7C6 C6C5 C5C4 C4C3 C3C2 C2C1 C1C0 C0B0" />
    <stop parkingArea="pa_C0B0" duration="100000" />
  </vehicle>
  <vehicle id="140" depart="42.00" departLane="best" departSpeed="max">
    <route edges="bottom7H0 H0G0 G0F0 F0E0 E0D0 D0C0 C0B0 B0A0 A0A1 A1A2 A2A3 A3left3" />
  </vehicle>
  <vehicle id="141" depart="42.30" departLane="best" departSpeed="max">
    <route edges="bottom0A0 A0A1 A1A2 A2B2 B2C2 C2D2 D2E2 E2F2 F2G2" />
    <stop parkingArea="pa_F2G2" duration="100000" />
  </vehicle>
  <vehicle id="142" depart="42.60" departLane="best" departSpeed="max">
    <route edges="right7H7 H7G7 G7F7 F7E7 E7D7 D7C7 C7B7 B7A7 A7top0" />
  </vehicle>
  <vehicle id="143" depart="42.90" departLane="best" departSpeed="max">
    <route edges="left5A5 A5A4 A4A3 A3A2 A2B2 B2C2 C2D2 D2C2" />
    <stop parkingArea="pa_D2C2" duration="100000" />
  </vehicle>
  <vehicle id="144" depart="43.20" departLane="best" departSpeed="max">
    <route edges="bottom2C0 C0C1 C1C2 C2C3 C3C4 C4C5 C5C6 C6C7 C7D7 D7E7 E7F7 F7top5" />
  </vehicle>
  <vehicle id="145" depart="43.50" departLane="best" departSpeed="max">
    <route edges="top0A7 A7A6 A6A5 A5A4 A4A3 A3A2 A2A1 A1B1 B1C1 C1D1 D1E1 E1F1 F1F0" />
    <stop parkingArea="pa_F1F0" duration="100000" />
  </vehicle>
  <vehicle id="146" depart="43.80" departLane="best" departSpeed="max">
    <route edges="right7H7 H7G7 G7F7 F7E7 E7D7 D7C7 C7B7 B7A7 A7A6 A6A5 A5A4 A4A3 A3A2 A2A1 A1left1" />
  </vehicle>
  <vehicle id="147" depart="44.10" departLane="best" departSpeed="max">
    <route edges="bottom6G0 G0F0 F0E0 E0D0 D0D1 D1D2 D2D3 D3D4 D4D5 D5D6 D6D7 D7E7" />
    <stop parkingArea="pa_D7E7" duration="100000" />
  </vehicle>
  <vehicle id="148" depart="44.40" departLane="best" departSpeed="max">
    <route edges="right6H6 H6G6 G6F6 F6E6 E6D6 D6C6 C6C7 C7top2" />
  </vehicle>
  <vehicle id="149" depart="44.70" departLane="best" departSpeed="max">
    <route edges="right0H0 H0G0 G0F0 F0F1 F1F2 F2F3 F3F4 F4F5 F5F6 F6F7 F7F6" />
    <stop parkingArea="pa_F7F6" duration="100000" />
  </vehicle>
  <vehicle id="150" depart="45.00" departLane="best" departSpeed="max">