<?xml version='1.0' encoding='UTF-8'?>
<additional><parkingArea id="pa_F1G1" lane="F1G1_0" startPos="2.00" endPos="16.00" roadsideCapacity="3" friendlyPos="true" /><parkingArea id="pa_B3C3" lane="B3C3_0" startPos="2.00" endPos="16.00" roadsideCapacity="3" friendlyPos="true" /><parkingArea id="pa_G6F6" lane="G6F6_0" startPos="2.00" endPos="16.00" roadsideCapacity="3" friendlyPos="true" /><parkingArea id="pa_A1A0" lane="A1A0_0" startPos="2.00" endPos="16.00" roadsideCapacity="3" friendlyPos="true" /><parkingArea id="pa_B6A6" lane="B6A6_0" startPos="2.00" endPos="16.00" roadsideCapacity="3" friendlyPos="true" /><parkingArea id="pa_D6D5" lane="D6D5_0" startPos="2.00" endPos="16.00" roadsideCapacity="3" friendlyPos="true" /><parkingArea id="pa_E7E6" lane="E7E6_0" startPos="2.00" endPos="16.00" roadsideCapacity="3" friendlyPos="true" /><parkingArea id="pa_E6F6" lane="E6F6_0" startPos="2.00" endPos="16.00" roadsideCapacity="3" friendlyPos="true" /><parkingArea id="pa_C0B0" lane="C0B0_0" startPos="2.00" endPos="16.00" roadsideCapacity="3" friendlyPos="true" /><parkingArea id="pa_F2G2" lane="F2G2_0" startPos="2.00" endPos="16.00" roadsideCapacity="3" friendlyPos="true" /><parkingArea id="pa_D2C2" lane="D2C2_0" startPos="2.00" endPos="16.00" roadsideCapacity="3" friendlyPos="true" /><parkingArea id="pa_F1F0" lane="F1F0_0" startPos="2.00" endPos="16.00" roadsideCapacity="3" friendlyPos="true" /><parkingArea id="pa_D7E7" lane="D7E7_0" startPos="2.00" endPos="16.00" roadsideCapacity="3" friendlyPos="true" /><parkingArea id="pa_F7F6" lane="F7F6_0" startPos="2.00" endPos="16.00" roadsideCapacity="3" friendlyPos="true" /><parkingArea id="pa_E2F2" lane="E2F2_0" startPos="2.00" endPos="16.00" roadsideCapacity="3" friendlyPos="true" /><parkingArea id="pa_D4D5" lane="D4D5_0" startPos="2.00" endPos="16.00" roadsideCapacity="3" friendlyPos="true" /><parkingArea id="pa_G2H2" lane="G2H2_0" startPos="2.00" endPos="16.00" roadsideCapacity="3" friendlyPos="true" /><parkingArea id="pa_C2C1" lane="C2C1_0" startPos="2.00" endPos="16.00" roadsideCapacity="3" friendlyPos="true" /><parkingArea id="pa_A4B4" lane="A4B4_0" startPos="2.00" endPos="16.00" roadsideCapacity="3" friendlyPos="true" /><parkingArea id="pa_B5C5" lane="B5C5_0" startPos="2.00" endPos="16.00" roadsideCapacity="3" friendlyPos="true" /><parkingArea id="pa_A5B5" lane="A5B5_0" startPos="2.00" endPos="16.00" roadsideCapacity="3" friendlyPos="true" /><parkingArea id="pa_D0E0" lane="D0E0_0" startPos="2.00" endPos="16.00" roadsideCapacity="3" friendlyPos="true" /><parkingArea id="pa_D4D3" lane="D4D3_0" startPos="2.00" endPos="16.00" roadsideCapacity="3" friendlyPos="true" /><parkingArea id="pa_B2A2" lane="B2A2_0" startPos="2.00" endPos="16.00" roadsideCapacity="3" friendlyPos="true" /><parkingArea id="pa_H5G5" lane="H5G5_0" startPos="2.00" endPos="16.00" roadsideCapacity="3" friendlyPos="true" /><parkingArea id="pa_A7B7" lane="A7B7_0" startPos="2.00" endPos="16.00" roadsideCapacity="3" friendlyPos="true" /><parkingArea id="pa_F7E7" lane="F7E7_0" startPos="2.00" endPos="16.00" roadsideCapacity="3" friendlyPos="true" /><parkingArea id="pa_G2G1" lane="G2G1_0" startPos="2.00" endPos="16.00" roadsideCapacity="3" friendlyPos="true" /><parkingArea id="pa_B2B1" lane="B2B1_0" startPos="2.00" endPos="16.00" roadsideCapacity="3" friendlyPos="true" /><parkingArea id="pa_F6F7" lane="F6F7_0" startPos="2.00" endPos="16.00" roadsideCapacity="3" friendlyPos="true" /><parkingArea id="pa_G1G0" lane="G1G0_0" startPos="2.00" endPos="16.00" roadsideCapacity="3" friendlyPos="true" /><parkingArea id="pa_A1B1" lane="A1B1_0" startPos="2.00" endPos="16.00" roadsideCapacity="3" friendlyPos="true" /><parkingArea id="pa_B5B4" lane="B5B4_0" startPos="2.00" endPos="16.00" roadsideCapacity="3" friendlyPos="true" /><parkingArea id="pa_B6B7" lane="B6B7_0" startPos="2.00" endPos="16.00" roadsideCapacity="3" friendlyPos="true" /><parkingArea id="pa_A2A1" lane="A2A1_0" startPos="2.00" endPos="16.00" roadsideCapacity="3" friendlyPos="true" /><parkingArea id="pa_C6C7" lane="C6C7_0" startPos="2.00" endPos="16.00" roadsideCapacity="3" friendlyPos="true" /><parkingArea id="pa_A1A2" lane="A1A2_0" startPos="2.00" endPos="16.00" roadsideCapacity="3" friendlyPos="true" /><parkingArea id="pa_A5A6" lane="A5A6_0" startPos="2.00" endPos="16.00" roadsideCapacity="3" friendlyPos="true" /><parkingArea id="pa_H5H4" lane="H5H4_0" startPos="2.00" endPos="16.00" roadsideCapacity="3" friendlyPos="true" /><parkingArea id="pa_E1D1" lane="E1D1_0" startPos="2.00" endPos="16.00" roadsideCapacity="3" friendlyPos="true" /><parkingArea id="pa_H1H2" lane="H1H2_0" startPos="2.00" endPos="16.00" roadsideCapacity="3" friendlyPos="true" /><parkingArea id="pa_C7D7" lane="C7D7_0" startPos="2.00" endPos="16.00" roadsideCapacity="2" friendlyPos="true" /><parkingArea id="pa_G3G4" lane="G3G4_0" startPos="2.00" endPos="16.00" roadsideCapacity="2" friendlyPos="true" /><parkingArea id="pa_D4E4" lane="D4E4_0" startPos="2.00" endPos="16.00" roadsideCapacity="2" friendlyPos="true" /><parkingArea id="pa_E5F5" lane="E5F5_0" startPos="2.00" endPos="16.00" roadsideCapacity="2" friendlyPos="true" /><parkingArea id="pa_C3D3" lane="C3D3_0" startPos="2.00" endPos="16.00" roadsideCapacity="2" friendlyPos="true" /><parkingArea id="pa_D5D6" lane="D5D6_0" startPos="2.00" endPos="16.00" roadsideCapacity="2" friendlyPos="true" /><parkingArea id="pa_C5C6" lane="C5C6_0" startPos="2.00" endPos="16.00" roadsideCapacity="2" friendlyPos="true" /><parkingArea id="pa_A3B3" lane="A3B3_0" startPos="2.00" endPos="16.00" roadsideCapacity="2" friendlyPos="true" /><parkingArea id="pa_G5F5" lane="G5F5_0" startPos="2.00" endPos="16.00" roadsideCapacity="2" friendlyPos="true" /><parkingArea id="pa_G3H3" lane="G3H3_0" startPos="2.00" endPos="16.00" roadsideCapacity="2" friendlyPos="true" /><parkingArea id="pa_A3A4" lane="A3A4_0" startPos="2.00" endPos="16.00" roadsideCapacity="2" friendlyPos="true" /><parkingArea id="pa_A4A5" lane="A4A5_0" startPos="2.00" endPos="16.00" roadsideCapacity="2" friendlyPos="true" /><parkingArea id="pa_B4B3" lane="B4B3_0" startPos="2.00" endPos="16.00" roadsideCapacity="2" friendlyPos="true" /><parkingArea id="pa_G5H5" lane="G5H5_0" startPos="2.00" endPos="16.00" roadsideCapacity="2" friendlyPos="true" /><parkingArea id="pa_C2C3" lane="C2C3_0" startPos="2.00" endPos="16.00" roadsideCapacity="2" friendlyPos="true" /><parkingArea id="pa_F0G0" lane="F0G0_0" startPos="2.00" endPos="16.00" roadsideCapacity="2" friendlyPos="true" /><parkingArea id="pa_F1E1" lane="F1E1_0" startPos="2.00" endPos="16.00" roadsideCapacity="2" friendlyPos="true" /><parkingArea id="pa_E2D2" lane="E2D2_0" startPos="2.00" endPos="16.00" roadsideCapacity="2" friendlyPos="true" /><parkingArea id="pa_E6D6" lane="E6D6_0" startPos="2.00" endPos="16.00" roadsideCapacity="2" friendlyPos="true" /><parkingArea id="pa_F5E5" lane="F5E5_0" startPos="2.00" endPos="16.00" roadsideCapacity="2" friendlyPos="true" /><parkingArea id="pa_C7B7" lane="C7B7_0" startPos="2.00" endPos="16.00" roadsideCapacity="2" friendlyPos="true" /><parkingArea id="pa_C6D6" lane="C6D6_0" startPos="2.00" endPos="16.00" roadsideCapacity="2" friendlyPos="true" /><parkingArea id="pa_H3G3" lane="H3G3_0" startPos="2.00" endPos="16.00" roadsideCapacity="2" friendlyPos="true" /><parkingArea id="pa_C3C2" lane="C3C2_0" startPos="2.00" endPos="16.00" roadsideCapacity="2" friendlyPos="true" /><parkingArea id="pa_D5E5" lane="D5E5_0" startPos="2.00" endPos="16.00" roadsideCapacity="2" friendlyPos="true" /><parkingArea id="pa_A0A1" lane="A0A1_0" startPos="2.00" endPos="16.00" roadsideCapacity="2" friendlyPos="true" /><parkingArea id="pa_E2E3" lane="E2E3_0" startPos="2.00" endPos="16.00" roadsideCapacity="2" friendlyPos="true" /><parkingArea id="pa_G0H0" lane="G0H0_0" startPos="2.00" endPos="16.00" roadsideCapacity="2" friendlyPos="true" /><parkingArea id="pa_G2G3" lane="G2G3_0" startPos="2.00" endPos="16.00" roadsideCapacity="2" friendlyPos="true" /><parkingArea id="pa_B4A4" lane="B4A4_0" startPos="2.00" endPos="16.00" roadsideCapacity="2" friendlyPos="true" /><parkingArea id="pa_F5G5" lane="F5G5_0" startPos="2.00" endPos="16.00" roadsideCapacity="2" friendlyPos="true" /><parkingArea id="pa_F6E6" lane="F6E6_0" startPos="2.00" endPos="16.00" roadsideCapacity="2" friendlyPos="true" /><parkingArea id="pa_B3B2" lane="B3B2_0" startPos="2.00" endPos="16.00" roadsideCapacity="2" friendlyPos="true" /><parkingArea id="pa_D6C6" lane="D6C6_0" startPos="2.00" endPos="16.00" roadsideCapacity="2" friendlyPos="true" /><parkingArea id="pa_E3D3" lane="E3D3_0" startPos="2.00" endPos="16.00" roadsideCapacity="2" friendlyPos="true" /><parkingArea id="pa_H4H5" lane="H4H5_0" startPos="2.00" endPos="16.00" roadsideCapacity="2" friendlyPos="true" /><parkingArea id="pa_H6G6" lane="H6G6_0" startPos="2.00" endPos="16.00" roadsideCapacity="2" friendlyPos="true" /><parkingArea id="pa_B2C2" lane="B2C2_0" startPos="2.00" endPos="16.00" roadsideCapacity="2" friendlyPos="true" /><parkingArea id="pa_G0F0" lane="G0F0_0" startPos="2.00" endPos="16.00" roadsideCapacity="2" friendlyPos="true" /><parkingArea id="pa_F3E3" lane="F3E3_0" startPos="2.00" endPos="16.00" roadsideCapacity="2" friendlyPos="true" /></additional>