<?xml version="1.0" encoding="UTF-8"?>

<!-- generated on 2026-07-09 04:25:36 by Eclipse SUMO netconvert Version 1.20.0
<configuration xmlns:xsi="http://www.w3.org/2001/XMLSchema-instance" xsi:noNamespaceSchemaLocation="http://sumo.dlr.de/xsd/netconvertConfiguration.xsd">

    <input>
        <node-files value="nodes_final.nod.xml"/>
        <edge-files value="edges_final.edg.xml"/>
        <connection-files value="connections_final.con.xml"/>
    </input>

    <output>
        <output-file value="net_with_rb.net.xml"/>
    </output>

    <junctions>
        <no-turnarounds value="true"/>
    </junctions>

</configuration>
-->

<net version="1.20" junctionCornerDetail="5" limitTurnSpeed="5.50" xmlns:xsi="http://www.w3.org/2001/XMLSchema-instance" xsi:noNamespaceSchemaLocation="http://sumo.dlr.de/xsd/net_file.xsd">

    <location netOffset="660.00,704.73" convBoundary="0.00,0.00,1525.07,1303.76" origBoundary="-660.00,-704.73,865.07,599.03" projParameter="!"/>

    <edge id=":1_0" function="internal">
        <lane id=":1_0_0" index="0" speed="13.89" length="15.55" shape="663.09,712.21 660.79,709.14 658.13,706.24 655.23,703.57 652.18,701.23"/>
    </edge>
    <edge id=":1_1" function="internal">
        <lane id=":1_1_0" index="0" speed="13.08" length="18.84" shape="663.09,712.21 661.18,708.37 660.28,704.06 660.41,699.28 661.55,694.03"/>
    </edge>
    <edge id=":1_2" function="internal">
        <lane id=":1_2_0" index="0" speed="8.18" length="17.19" shape="663.09,712.21 661.41,708.31 661.88,704.85 664.51,701.82 669.30,699.22"/>
    </edge>
    <edge id=":1_3" function="internal">
        <lane id=":1_3_0" index="0" speed="6.73" length="11.25" shape="670.50,702.19 667.18,703.94 665.28,705.89 664.80,708.06 665.75,710.43"/>
    </edge>
    <edge id=":1_4" function="internal">
        <lane id=":1_4_0" index="0" speed="12.17" length="19.14" shape="670.50,702.19 665.35,703.76 660.57,704.13 656.19,703.28 652.18,701.23"/>
    </edge>
    <edge id=":1_5" function="internal">
        <lane id=":1_5_0" index="0" speed="7.38" length="18.10" shape="670.50,702.19 665.07,703.67 661.76,702.80 660.59,699.59 661.55,694.03"/>
    </edge>
    <edge id=":1_6" function="internal">
        <lane id=":1_6_0" index="0" speed="5.53" length="9.47" shape="664.61,694.95 664.11,697.86 664.72,699.54 666.45,699.99 669.30,699.22"/>
    </edge>
    <edge id=":1_7" function="internal">
        <lane id=":1_7_0" index="0" speed="12.09" length="16.02" shape="664.61,694.95 663.61,699.49 663.46,703.58 664.18,707.22 665.75,710.43"/>
    </edge>
    <edge id=":1_8" function="internal">
        <lane id=":1_8_0" index="0" speed="7.93" length="17.27" shape="664.61,694.95 662.44,699.98 659.64,702.70 656.23,703.12 652.18,701.23"/>
    </edge>
    <edge id=":1_9" function="internal">
        <lane id=":1_9_0" index="0" speed="6.41" length="10.85" shape="654.01,698.61 656.39,699.65 658.44,699.24 660.16,697.37 661.55,694.03"/>
    </edge>
    <edge id=":1_10" function="internal">
        <lane id=":1_10_0" index="0" speed="11.14" length="15.96" shape="654.01,698.61 657.29,700.26 660.92,700.92 664.93,700.57 669.30,699.22"/>
    </edge>
    <edge id=":1_11" function="internal">
        <lane id=":1_11_0" index="0" speed="13.89" length="16.73" shape="654.01,698.61 657.18,701.08 660.37,704.03 663.32,707.23 665.75,710.43"/>
    </edge>
    <edge id=":165_0" function="internal">
        <lane id=":165_0_0" index="0" speed="7.03" length="15.51" shape="1083.44,626.03 1082.95,619.73 1081.78,615.79 1079.93,614.22 1077.40,615.02"/>
    </edge>
    <edge id=":165_1" function="internal">
        <lane id=":165_1_0" index="0" speed="13.89" length="24.33" shape="1083.44,626.03 1082.89,620.79 1081.51,613.86 1079.48,607.22 1076.97,602.84"/>
    </edge>
    <edge id=":165_2" function="internal">
        <lane id=":165_2_0" index="0" speed="13.89" length="27.47" shape="1083.44,626.03 1083.57,620.33 1084.09,612.29 1084.90,604.30 1085.93,598.72"/>
    </edge>
    <edge id=":165_3" function="internal">
        <lane id=":165_3_0" index="0" speed="11.24" length="10.74" shape="1083.44,626.03 1083.93,617.46 1084.52,615.39"/>
    </edge>
    <edge id=":165_20" function="internal">
        <lane id=":165_20_0" index="0" speed="11.24" length="14.77" shape="1084.52,615.39 1085.77,611.08 1088.97,606.87 1093.53,604.84"/>
    </edge>
    <edge id=":165_4" function="internal">
        <lane id=":165_4_0" index="0" speed="10.23" length="20.99" shape="1094.09,607.99 1090.71,609.64 1088.34,613.18 1086.98,618.63 1086.64,625.97"/>
    </edge>
    <edge id=":165_5" function="internal">
        <lane id=":165_5_0" index="0" speed="13.89" length="18.20" shape="1094.09,607.99 1089.99,609.06 1085.44,610.77 1081.05,612.85 1077.40,615.02"/>
    </edge>
    <edge id=":165_6" function="internal">
        <lane id=":165_6_0" index="0" speed="12.42" length="3.74" shape="1094.09,607.99 1090.36,608.26"/>
    </edge>
    <edge id=":165_7" function="internal">
        <lane id=":165_7_0" index="0" speed="7.42" length="3.27" shape="1094.09,607.99 1090.82,608.13"/>
    </edge>
    <edge id=":165_21" function="internal">
        <lane id=":165_21_0" index="0" speed="12.42" length="14.85" shape="1090.36,608.26 1089.30,608.34 1084.85,607.59 1080.73,605.76 1076.97,602.84"/>
    </edge>
    <edge id=":165_22" function="internal">
        <lane id=":165_22_0" index="0" speed="7.42" length="13.24" shape="1090.82,608.13 1089.18,608.20 1086.19,606.72 1085.10,603.56 1085.93,598.72"/>
    </edge>
    <edge id=":165_8" function="internal">
        <lane id=":165_8_0" index="0" speed="5.71" length="9.20" shape="1088.98,599.68 1088.52,602.37 1089.12,604.14 1090.79,604.96 1093.53,604.84"/>
    </edge>
    <edge id=":165_9" function="internal">
        <lane id=":165_9_0" index="0" speed="13.89" length="26.44" shape="1088.98,599.68 1087.97,605.09 1087.21,612.74 1086.75,620.42 1086.64,625.97"/>
    </edge>
    <edge id=":165_10" function="internal">
        <lane id=":165_10_0" index="0" speed="13.89" length="2.82" shape="1088.98,599.68 1087.79,602.23"/>
    </edge>
    <edge id=":165_11" function="internal">
        <lane id=":165_11_0" index="0" speed="7.45" length="2.78" shape="1088.98,599.68 1087.80,602.19"/>
    </edge>
    <edge id=":165_23" function="internal">
        <lane id=":165_23_0" index="0" speed="13.89" length="16.61" shape="1087.79,602.23 1087.12,603.69 1084.17,608.07 1080.74,612.09 1077.40,615.02"/>
    </edge>
    <edge id=":165_24" function="internal">
        <lane id=":165_24_0" index="0" speed="7.45" length="13.68" shape="1087.80,602.19 1086.90,604.12 1084.20,606.13 1080.89,605.70 1076.97,602.84"/>
    </edge>
    <edge id=":165_12" function="internal">
        <lane id=":165_12_0" index="0" speed="5.76" length="9.26" shape="1079.19,600.53 1081.39,602.14 1083.24,602.37 1084.76,601.23 1085.93,598.72"/>
    </edge>
    <edge id=":165_13" function="internal">
        <lane id=":165_13_0" index="0" speed="11.39" length="15.57" shape="1079.19,600.53 1082.34,602.98 1085.78,604.51 1089.51,605.13 1093.53,604.84"/>
    </edge>
    <edge id=":165_14" function="internal">
        <lane id=":165_14_0" index="0" speed="13.89" length="26.74" shape="1079.19,600.53 1081.85,605.27 1084.22,612.68 1085.94,620.37 1086.64,625.97"/>
    </edge>
    <edge id=":165_15" function="internal">
        <lane id=":165_15_0" index="0" speed="8.26" length="17.52" shape="1079.19,600.53 1082.08,604.34 1082.74,608.02 1081.19,611.58 1077.40,615.02"/>
    </edge>
    <edge id=":165_16" function="internal">
        <lane id=":165_16_0" index="0" speed="6.83" length="11.58" shape="1075.58,612.39 1078.14,610.09 1079.22,607.73 1078.83,605.31 1076.97,602.84"/>
    </edge>
    <edge id=":165_17" function="internal">
        <lane id=":165_17_0" index="0" speed="13.89" length="17.37" shape="1075.58,612.39 1078.73,609.72 1081.74,606.28 1084.26,602.47 1085.93,598.72"/>
    </edge>
    <edge id=":165_18" function="internal">
        <lane id=":165_18_0" index="0" speed="13.89" length="19.55" shape="1075.58,612.39 1079.43,610.13 1084.25,607.88 1089.23,605.99 1093.53,604.84"/>
    </edge>
    <edge id=":165_19" function="internal">
        <lane id=":165_19_0" index="0" speed="8.35" length="3.07" shape="1075.58,612.39 1078.51,611.48"/>
    </edge>
    <edge id=":165_25" function="internal">
        <lane id=":165_25_0" index="0" speed="8.35" length="19.41" shape="1078.51,611.48 1080.66,610.81 1084.04,613.46 1085.96,618.97 1086.64,625.97"/>
    </edge>
    <edge id=":171_0" function="internal">
        <lane id=":171_0_0" index="0" speed="4.35" length="1.07" shape="475.89,494.85 475.61,495.00 475.44,495.13 475.31,495.31 475.16,495.59"/>
    </edge>
    <edge id=":171_1" function="internal">
        <lane id=":171_1_0" index="0" speed="6.95" length="3.24" shape="472.27,494.21 472.70,493.36 473.10,492.83 473.64,492.42 474.48,491.98"/>
    </edge>
    <edge id=":18_0" function="internal">
        <lane id=":18_0_0" index="0" speed="13.89" length="16.05" shape="875.94,619.43 860.82,624.82"/>
    </edge>
    <edge id=":18_1" function="internal">
        <lane id=":18_1_0" index="0" speed="7.38" length="5.00" shape="875.94,619.43 871.04,620.43"/>
    </edge>
    <edge id=":18_6" function="internal">
        <lane id=":18_6_0" index="0" speed="7.38" length="13.20" shape="871.04,620.43 870.38,620.56 867.13,619.48 866.20,616.18 867.58,610.68"/>
    </edge>
    <edge id=":18_2" function="internal">
        <lane id=":18_2_0" index="0" speed="5.53" length="9.49" shape="870.57,611.83 869.85,614.70 870.34,616.42 872.03,616.98 874.93,616.39"/>
    </edge>
    <edge id=":18_3" function="internal">
        <lane id=":18_3_0" index="0" speed="13.00" length="16.64" shape="870.57,611.83 868.42,616.65 866.08,620.43 863.54,623.15 860.82,624.82"/>
    </edge>
    <edge id=":18_4" function="internal">
        <lane id=":18_4_0" index="0" speed="11.97" length="14.03" shape="859.62,621.86 861.75,620.50 863.78,618.18 865.73,614.91 867.58,610.68"/>
    </edge>
    <edge id=":18_5" function="internal">
        <lane id=":18_5_0" index="0" speed="13.89" length="16.26" shape="859.62,621.86 874.93,616.39"/>
    </edge>
    <edge id=":183_0" function="internal">
        <lane id=":183_0_0" index="0" speed="6.08" length="7.63" shape="758.93,363.71 759.34,365.75 759.01,367.45 757.92,368.80 756.09,369.80"/>
    </edge>
    <edge id=":183_1" function="internal">
        <lane id=":183_1_0" index="0" speed="3.90" length="2.54" shape="754.97,366.81 755.58,366.48 755.94,366.03 756.05,365.46 755.91,364.78"/>
    </edge>
    <edge id=":185_0" function="internal">
        <lane id=":185_0_0" index="0" speed="12.33" length="14.78" shape="590.75,943.56 589.80,941.18 587.82,938.64 584.80,935.94 580.75,933.09"/>
    </edge>
    <edge id=":185_1" function="internal">
        <lane id=":185_1_0" index="0" speed="13.89" length="16.89" shape="590.75,943.56 587.50,926.98"/>
    </edge>
    <edge id=":185_2" function="internal">
        <lane id=":185_2_0" index="0" speed="13.89" length="16.92" shape="590.64,926.36 593.89,942.97"/>
    </edge>
    <edge id=":185_3" function="internal">
        <lane id=":185_3_0" index="0" speed="7.41" length="5.93" shape="590.64,926.36 591.13,932.27"/>
    </edge>
    <edge id=":185_6" function="internal">
        <lane id=":185_6_0" index="0" speed="7.41" length="13.15" shape="591.13,932.27 591.14,932.41 589.66,935.54 586.20,935.77 580.75,933.09"/>
    </edge>
    <edge id=":185_4" function="internal">
        <lane id=":185_4_0" index="0" speed="5.48" length="9.69" shape="582.48,930.40 585.25,931.76 587.00,931.65 587.75,930.05 587.50,926.98"/>
    </edge>
    <edge id=":185_5" function="internal">
        <lane id=":185_5_0" index="0" speed="13.33" length="17.37" shape="582.48,930.40 587.05,933.66 590.47,936.85 592.75,939.95 593.89,942.97"/>
    </edge>
    <edge id=":188_0" function="internal">
        <lane id=":188_0_0" index="0" speed="11.66" length="19.89" shape="926.16,727.78 923.06,724.50 921.16,720.38 920.48,715.41 921.00,709.60"/>
    </edge>
    <edge id=":188_1" function="internal">
        <lane id=":188_1_0" index="0" speed="8.11" length="5.82" shape="926.16,727.78 923.21,724.46 923.02,723.09"/>
    </edge>
    <edge id=":188_6" function="internal">
        <lane id=":188_6_0" index="0" speed="8.11" length="12.23" shape="923.02,723.09 922.73,720.96 924.73,717.29 929.20,713.44"/>
    </edge>
    <edge id=":188_2" function="internal">
        <lane id=":188_2_0" index="0" speed="6.64" length="11.67" shape="931.02,716.07 927.91,718.66 926.39,721.06 926.45,723.25 928.11,725.24"/>
    </edge>
    <edge id=":188_3" function="internal">
        <lane id=":188_3_0" index="0" speed="7.42" length="19.26" shape="931.02,716.07 925.60,718.97 922.12,718.86 920.59,715.74 921.00,709.60"/>
    </edge>
    <edge id=":188_4" function="internal">
        <lane id=":188_4_0" index="0" speed="5.48" length="9.73" shape="924.14,710.17 923.93,713.27 924.71,714.85 926.46,714.90 929.20,713.44"/>
    </edge>
    <edge id=":188_5" function="internal">
        <lane id=":188_5_0" index="0" speed="10.62" length="16.39" shape="924.14,710.17 923.67,715.06 924.18,719.21 925.66,722.60 928.11,725.24"/>
    </edge>
    <edge id=":190_0" function="internal">
        <lane id=":190_0_0" index="0" speed="13.76" length="13.08" shape="1178.07,595.73 1174.89,594.57 1171.85,594.29 1168.73,594.62 1165.28,595.23"/>
    </edge>
    <edge id=":190_1" function="internal">
        <lane id=":190_1_0" index="0" speed="13.89" length="14.99" shape="1178.07,595.73 1174.92,593.74 1172.09,591.31 1169.50,588.57 1167.08,585.69"/>
    </edge>
    <edge id=":190_2" function="internal">
        <lane id=":190_2_0" index="0" speed="13.89" length="13.68" shape="1169.56,583.67 1171.82,586.42 1174.06,588.87 1176.54,591.02 1179.53,592.88"/>
    </edge>
    <edge id=":190_3" function="internal">
        <lane id=":190_3_0" index="0" speed="7.41" length="4.52" shape="1169.56,583.67 1171.92,587.52"/>
    </edge>
    <edge id=":190_6" function="internal">
        <lane id=":190_6_0" index="0" speed="7.41" length="12.16" shape="1171.92,587.52 1172.17,587.92 1172.33,591.27 1170.03,593.70 1165.28,595.23"/>
    </edge>
    <edge id=":190_4" function="internal">
        <lane id=":190_4_0" index="0" speed="5.69" length="9.22" shape="1164.71,592.08 1167.34,591.24 1168.61,589.89 1168.52,588.04 1167.08,585.69"/>
    </edge>
    <edge id=":190_5" function="internal">
        <lane id=":190_5_0" index="0" speed="13.89" length="15.09" shape="1164.71,592.08 1168.48,591.51 1172.30,591.29 1176.03,591.67 1179.53,592.88"/>
    </edge>
    <edge id=":192_0" function="internal">
        <lane id=":192_0_0" index="0" speed="13.89" length="14.27" shape="1089.21,856.93 1087.79,853.67 1085.63,850.98 1082.96,848.62 1080.03,846.36"/>
    </edge>
    <edge id=":192_1" function="internal">
        <lane id=":192_1_0" index="0" speed="13.89" length="16.07" shape="1089.21,856.93 1088.44,853.10 1087.99,849.02 1087.76,844.90 1087.65,840.98"/>
    </edge>
    <edge id=":192_2" function="internal">
        <lane id=":192_2_0" index="0" speed="13.89" length="15.31" shape="1090.85,840.91 1090.94,844.72 1091.14,848.58 1091.56,852.40 1092.31,856.11"/>
    </edge>
    <edge id=":192_3" function="internal">
        <lane id=":192_3_0" index="0" speed="7.38" length="5.23" shape="1090.85,840.91 1090.32,846.12"/>
    </edge>
    <edge id=":192_6" function="internal">
        <lane id=":192_6_0" index="0" speed="7.38" length="12.84" shape="1090.32,846.12 1090.28,846.50 1088.28,849.27 1084.87,849.23 1080.03,846.36"/>
    </edge>
    <edge id=":192_4" function="internal">
        <lane id=":192_4_0" index="0" speed="5.53" length="9.47" shape="1081.98,843.83 1084.52,845.33 1086.31,845.36 1087.35,843.91 1087.65,840.98"/>
    </edge>
    <edge id=":192_5" function="internal">
        <lane id=":192_5_0" index="0" speed="13.89" length="16.29" shape="1081.98,843.83 1085.09,846.36 1088.15,849.31 1090.71,852.59 1092.31,856.11"/>
    </edge>
    <edge id=":2_0" function="internal">
        <lane id=":2_0_0" index="0" speed="13.89" length="3.33" shape="703.01,567.40 702.06,570.59"/>
    </edge>
    <edge id=":2_1" function="internal">
        <lane id=":2_1_0" index="0" speed="13.89" length="3.09" shape="698.99,569.66 699.88,566.70"/>
    </edge>
    <edge id=":224_0" function="internal">
        <lane id=":224_0_0" index="0" speed="5.66" length="9.50" shape="1118.42,526.00 1116.28,523.96 1114.46,523.45 1112.95,524.47 1111.75,527.03"/>
    </edge>
    <edge id=":224_1" function="internal">
        <lane id=":224_1_0" index="0" speed="10.53" length="20.18" shape="1118.42,526.00 1115.69,521.51 1114.73,516.91 1115.54,512.21 1118.13,507.40"/>
    </edge>
    <edge id=":224_2" function="internal">
        <lane id=":224_2_0" index="0" speed="7.44" length="17.91" shape="1118.42,526.00 1115.59,521.42 1115.55,518.02 1118.28,515.81 1123.80,514.79"/>
    </edge>
    <edge id=":224_3" function="internal">
        <lane id=":224_3_0" index="0" speed="5.66" length="9.70" shape="1124.00,517.99 1120.96,518.54 1119.43,519.73 1119.41,521.54 1120.90,523.98"/>
    </edge>
    <edge id=":224_4" function="internal">
        <lane id=":224_4_0" index="0" speed="9.97" length="16.28" shape="1124.00,517.99 1119.63,518.78 1116.14,520.55 1113.51,523.30 1111.75,527.03"/>
    </edge>
    <edge id=":224_5" function="internal">
        <lane id=":224_5_0" index="0" speed="7.38" length="18.14" shape="1124.00,517.99 1118.36,517.66 1115.50,515.78 1115.43,512.36 1118.13,507.40"/>
    </edge>
    <edge id=":224_6" function="internal">
        <lane id=":224_6_0" index="0" speed="5.53" length="9.47" shape="1120.73,509.26 1119.32,511.85 1119.36,513.64 1120.85,514.62 1123.80,514.79"/>
    </edge>
    <edge id=":224_7" function="internal">
        <lane id=":224_7_0" index="0" speed="9.42" length="15.97" shape="1120.73,509.26 1118.67,513.08 1118.01,516.81 1118.75,520.44 1120.90,523.98"/>
    </edge>
    <edge id=":224_8" function="internal">
        <lane id=":224_8_0" index="0" speed="13.89" length="19.96" shape="1120.73,509.26 1118.31,513.08 1115.71,517.88 1113.38,522.81 1111.75,527.03"/>
    </edge>
    <edge id=":224_9" function="internal">
        <lane id=":224_9_0" index="0" speed="13.89" length="20.96" shape="1108.70,526.07 1110.40,521.71 1112.89,516.47 1115.64,511.36 1118.13,507.40"/>
    </edge>
    <edge id=":224_10" function="internal">
        <lane id=":224_10_0" index="0" speed="11.05" length="20.16" shape="1108.70,526.07 1110.88,521.41 1114.13,517.98 1118.43,515.77 1123.80,514.79"/>
    </edge>
    <edge id=":224_11" function="internal">
        <lane id=":224_11_0" index="0" speed="7.42" length="17.43" shape="1108.70,526.07 1110.91,521.32 1113.68,519.39 1117.01,520.27 1120.90,523.98"/>
    </edge>
    <edge id=":226_0" function="internal">
        <lane id=":226_0_0" index="0" speed="13.89" length="14.65" shape="432.36,585.41 431.03,588.84 430.15,592.35 429.56,595.95 429.10,599.63"/>
    </edge>
    <edge id=":226_1" function="internal">
        <lane id=":226_1_0" index="0" speed="13.89" length="15.83" shape="432.36,585.41 430.22,588.57 427.29,591.30 423.94,593.63 420.55,595.61"/>
    </edge>
    <edge id=":226_2" function="internal">
        <lane id=":226_2_0" index="0" speed="13.89" length="13.91" shape="419.00,592.81 422.18,591.05 425.07,589.21 427.54,586.97 429.47,584.03"/>
    </edge>
    <edge id=":226_3" function="internal">
        <lane id=":226_3_0" index="0" speed="7.38" length="4.47" shape="419.00,592.81 423.16,591.16"/>
    </edge>
    <edge id=":226_6" function="internal">
        <lane id=":226_6_0" index="0" speed="7.38" length="13.11" shape="423.16,591.16 424.02,590.81 427.38,591.28 429.07,594.22 429.10,599.63"/>
    </edge>
    <edge id=":226_4" function="internal">
        <lane id=":226_4_0" index="0" speed="5.57" length="9.37" shape="425.93,599.24 425.92,596.36 425.01,594.80 423.23,594.55 420.55,595.61"/>
    </edge>
    <edge id=":226_5" function="internal">
        <lane id=":226_5_0" index="0" speed="13.89" length="15.68" shape="425.93,599.24 426.44,595.41 427.12,591.47 428.09,587.62 429.47,584.03"/>
    </edge>
    <edge id=":228_0" function="internal">
        <lane id=":228_0_0" index="0" speed="6.27" length="5.18" shape="720.30,264.24 720.00,262.93 720.06,261.69 720.49,260.52 721.27,259.42"/>
    </edge>
    <edge id=":228_1" function="internal">
        <lane id=":228_1_0" index="0" speed="4.01" length="1.73" shape="723.64,261.57 723.38,261.94 723.24,262.33 723.22,262.74 723.32,263.18"/>
    </edge>
    <edge id=":230_0" function="internal">
        <lane id=":230_0_0" index="0" speed="13.89" length="23.62" shape="405.44,820.44 386.25,806.67"/>
    </edge>
    <edge id=":230_1" function="internal">
        <lane id=":230_1_0" index="0" speed="10.27" length="3.90" shape="405.44,820.44 402.94,818.13 402.71,817.68"/>
    </edge>
    <edge id=":230_6" function="internal">
        <lane id=":230_6_0" index="0" speed="10.27" length="11.87" shape="402.71,817.68 401.33,814.99 400.62,811.02 400.81,806.21"/>
    </edge>
    <edge id=":230_2" function="internal">
        <lane id=":230_2_0" index="0" speed="9.08" length="12.19" shape="403.99,806.60 403.80,810.46 404.27,813.61 405.39,816.04 407.17,817.75"/>
    </edge>
    <edge id=":230_3" function="internal">
        <lane id=":230_3_0" index="0" speed="8.51" length="22.59" shape="403.99,806.60 401.83,811.57 397.64,812.51 392.19,810.52 386.25,806.67"/>
    </edge>
    <edge id=":230_4" function="internal">
        <lane id=":230_4_0" index="0" speed="7.15" length="15.53" shape="388.16,804.10 393.39,807.54 397.24,809.04 399.71,808.60 400.81,806.21"/>
    </edge>
    <edge id=":230_5" function="internal">
        <lane id=":230_5_0" index="0" speed="13.89" length="23.40" shape="388.16,804.10 407.17,817.75"/>
    </edge>
    <edge id=":232_0" function="internal">
        <lane id=":232_0_0" index="0" speed="6.09" length="9.30" shape="628.40,1125.38 628.52,1128.03 627.72,1129.86 625.99,1130.87 623.35,1131.06"/>
    </edge>
    <edge id=":232_1" function="internal">
        <lane id=":232_1_0" index="0" speed="3.91" length="3.10" shape="623.58,1127.87 624.46,1127.81 625.03,1127.47 625.30,1126.86 625.26,1125.98"/>
    </edge>
    <edge id=":24_0" function="internal">
        <lane id=":24_0_0" index="0" speed="6.11" length="9.96" shape="564.32,810.43 564.16,807.54 565.01,805.64 566.88,804.70 569.77,804.75"/>
    </edge>
    <edge id=":24_1" function="internal">
        <lane id=":24_1_0" index="0" speed="3.92" length="3.32" shape="569.28,807.91 568.31,807.89 567.69,808.20 567.41,808.84 567.46,809.80"/>
    </edge>
    <edge id=":337_0" function="internal">
        <lane id=":337_0_0" index="0" speed="6.09" length="9.18" shape="1371.66,691.30 1373.79,692.81 1374.74,694.54 1374.51,696.51 1373.11,698.71"/>
    </edge>
    <edge id=":337_1" function="internal">
        <lane id=":337_1_0" index="0" speed="3.91" length="3.06" shape="1370.68,696.62 1371.15,695.89 1371.23,695.23 1370.91,694.65 1370.20,694.15"/>
    </edge>
    <edge id=":351_0" function="internal">
        <lane id=":351_0_0" index="0" speed="8.32" length="11.37" shape="1121.44,950.22 1118.14,948.98 1115.27,948.61 1112.82,949.11 1110.79,950.48"/>
    </edge>
    <edge id=":351_1" function="internal">
        <lane id=":351_1_0" index="0" speed="13.06" length="18.27" shape="1121.44,950.22 1117.47,947.80 1114.28,944.72 1111.86,940.96 1110.22,936.53"/>
    </edge>
    <edge id=":351_2" function="internal">
        <lane id=":351_2_0" index="0" speed="7.50" length="6.11" shape="1121.44,950.22 1117.51,947.61 1116.86,946.37"/>
    </edge>
    <edge id=":351_12" function="internal">
        <lane id=":351_12_0" index="0" speed="7.50" length="10.14" shape="1116.86,946.37 1115.95,944.66 1116.77,941.38 1119.96,937.77"/>
    </edge>
    <edge id=":351_3" function="internal">
        <lane id=":351_3_0" index="0" speed="5.84" length="9.31" shape="1122.05,940.19 1120.21,942.27 1119.72,944.16 1120.59,945.84 1122.82,947.33"/>
    </edge>
    <edge id=":351_4" function="internal">
        <lane id=":351_4_0" index="0" speed="13.89" length="15.25" shape="1122.05,940.19 1110.79,950.48"/>
    </edge>
    <edge id=":351_5" function="internal">
        <lane id=":351_5_0" index="0" speed="7.44" length="4.34" shape="1122.05,940.19 1118.41,942.56"/>
    </edge>
    <edge id=":351_13" function="internal">
        <lane id=":351_13_0" index="0" speed="7.44" length="12.00" shape="1118.41,942.56 1117.99,942.83 1114.67,943.10 1112.08,941.00 1110.22,936.53"/>
    </edge>
    <edge id=":351_6" function="internal">
        <lane id=":351_6_0" index="0" speed="5.75" length="9.17" shape="1113.32,935.71 1114.36,938.22 1115.82,939.40 1117.68,939.25 1119.96,937.77"/>
    </edge>
    <edge id=":351_7" function="internal">
        <lane id=":351_7_0" index="0" speed="12.05" length="15.49" shape="1113.32,935.71 1114.72,939.48 1116.76,942.67 1119.47,945.28 1122.82,947.33"/>
    </edge>
    <edge id=":351_8" function="internal">
        <lane id=":351_8_0" index="0" speed="10.69" length="3.92" shape="1113.32,935.71 1114.00,939.57"/>
    </edge>
    <edge id=":351_14" function="internal">
        <lane id=":351_14_0" index="0" speed="10.69" length="11.78" shape="1114.00,939.57 1114.12,940.28 1113.97,944.26 1112.86,947.66 1110.79,950.48"/>
    </edge>
    <edge id=":351_9" function="internal">
        <lane id=":351_9_0" index="0" speed="9.53" length="12.34" shape="1108.53,948.21 1110.05,946.07 1110.84,943.41 1110.90,940.23 1110.22,936.53"/>
    </edge>
    <edge id=":351_10" function="internal">
        <lane id=":351_10_0" index="0" speed="13.89" length="15.48" shape="1108.53,948.21 1119.96,937.77"/>
    </edge>
    <edge id=":351_11" function="internal">
        <lane id=":351_11_0" index="0" speed="9.57" length="3.91" shape="1108.53,948.21 1111.39,946.20 1111.80,946.10"/>
    </edge>
    <edge id=":351_15" function="internal">
        <lane id=":351_15_0" index="0" speed="9.57" length="11.41" shape="1111.80,946.10 1114.72,945.39 1118.53,945.76 1122.82,947.33"/>
    </edge>
    <edge id=":353_0" function="internal">
        <lane id=":353_0_0" index="0" speed="12.06" length="18.98" shape="1313.26,496.78 1310.31,501.06 1306.83,504.20 1302.82,506.21 1298.29,507.08"/>
    </edge>
    <edge id=":353_1" function="internal">
        <lane id=":353_1_0" index="0" speed="7.38" length="6.96" shape="1313.26,496.78 1310.08,501.13 1308.64,501.77"/>
    </edge>
    <edge id=":353_6" function="internal">
        <lane id=":353_6_0" index="0" speed="7.38" length="10.60" shape="1308.64,501.77 1306.98,502.51 1303.98,500.94 1301.07,496.40"/>
    </edge>
    <edge id=":353_2" function="internal">
        <lane id=":353_2_0" index="0" speed="5.58" length="9.36" shape="1303.96,495.03 1305.51,497.45 1307.11,498.29 1308.76,497.55 1310.46,495.23"/>
    </edge>
    <edge id=":353_3" function="internal">
        <lane id=":353_3_0" index="0" speed="7.72" length="16.99" shape="1303.96,495.03 1305.63,500.04 1305.25,503.72 1302.80,506.07 1298.29,507.08"/>
    </edge>
    <edge id=":353_4" function="internal">
        <lane id=":353_4_0" index="0" speed="6.14" length="10.23" shape="1298.09,503.89 1300.66,503.27 1302.02,501.82 1302.15,499.53 1301.07,496.40"/>
    </edge>
    <edge id=":353_5" function="internal">
        <lane id=":353_5_0" index="0" speed="11.03" length="15.77" shape="1298.09,503.89 1301.81,503.16 1305.10,501.48 1307.99,498.83 1310.46,495.23"/>
    </edge>
    <edge id=":359_0" function="internal">
        <lane id=":359_0_0" index="0" speed="5.69" length="9.22" shape="1235.45,358.65 1233.94,356.34 1232.31,355.47 1230.55,356.04 1228.66,358.06"/>
    </edge>
    <edge id=":359_1" function="internal">
        <lane id=":359_1_0" index="0" speed="13.89" length="15.53" shape="1235.45,358.65 1228.52,344.75"/>
    </edge>
    <edge id=":359_2" function="internal">
        <lane id=":359_2_0" index="0" speed="7.70" length="4.76" shape="1235.45,358.65 1233.97,354.12"/>
    </edge>
    <edge id=":359_12" function="internal">
        <lane id=":359_12_0" index="0" speed="7.70" length="11.58" shape="1233.97,354.12 1233.92,353.96 1234.35,350.44 1236.73,348.08 1241.08,346.89"/>
    </edge>
    <edge id=":359_3" function="internal">
        <lane id=":359_3_0" index="0" speed="6.11" length="9.82" shape="1241.44,350.07 1238.93,350.79 1237.57,352.23 1237.37,354.39 1238.34,357.28"/>
    </edge>
    <edge id=":359_4" function="internal">
        <lane id=":359_4_0" index="0" speed="12.37" length="15.52" shape="1241.44,350.07 1237.75,350.90 1234.39,352.51 1231.36,354.89 1228.66,358.06"/>
    </edge>
    <edge id=":359_5" function="internal">
        <lane id=":359_5_0" index="0" speed="9.60" length="3.49" shape="1241.44,350.07 1237.95,350.13"/>
    </edge>
    <edge id=":359_13" function="internal">
        <lane id=":359_13_0" index="0" speed="9.60" length="11.41" shape="1237.95,350.13 1237.07,350.15 1233.46,349.29 1230.61,347.49 1228.52,344.75"/>
    </edge>
    <edge id=":359_6" function="internal">
        <lane id=":359_6_0" index="0" speed="8.34" length="11.05" shape="1231.35,343.25 1232.85,345.16 1234.98,346.40 1237.72,346.98 1241.08,346.89"/>
    </edge>
    <edge id=":359_7" function="internal">
        <lane id=":359_7_0" index="0" speed="13.89" length="15.67" shape="1231.35,343.25 1238.34,357.28"/>
    </edge>
    <edge id=":359_8" function="internal">
        <lane id=":359_8_0" index="0" speed="10.36" length="3.84" shape="1231.35,343.25 1232.45,346.55 1232.44,346.91"/>
    </edge>
    <edge id=":359_14" function="internal">
        <lane id=":359_14_0" index="0" speed="10.36" length="12.02" shape="1232.44,346.91 1232.36,350.11 1231.10,353.95 1228.66,358.06"/>
    </edge>
    <edge id=":359_9" function="internal">
        <lane id=":359_9_0" index="0" speed="9.18" length="12.31" shape="1226.06,356.20 1228.05,352.91 1229.13,349.90 1229.28,347.18 1228.52,344.75"/>
    </edge>
    <edge id=":359_10" function="internal">