<?xml version="1.0" encoding="UTF-8"?>

<!-- generated on 2026-07-09 04:27:09 by Eclipse SUMO duarouter Version 1.20.0
<configuration xmlns:xsi="http://www.w3.org/2001/XMLSchema-instance" xsi:noNamespaceSchemaLocation="http://sumo.dlr.de/xsd/duarouterConfiguration.xsd">

    <input>
        <net-file value="net.net.xml"/>
        <route-files value="trips_final.xml"/>
    </input>

    <output>
        <output-file value="rou_final.xml"/>
        <named-routes value="true"/>
    </output>

    <report>
        <ignore-errors value="true"/>
    </report>

    <random_number>
        <seed value="42"/>
    </random_number>

</configuration>
-->

<routes xmlns:xsi="http://www.w3.org/2001/XMLSchema-instance" xsi:noNamespaceSchemaLocation="http://sumo.dlr.de/xsd/routes_file.xsd">
    <route id="r0" edges="-440 -393 -370 -231 -186 -25 -9 19 49 234 -340 -193"/>
    <vehicle id="0" depart="0.00" route="r0"/>
    <route id="r1" edges="-407 415 -424 -387 -360 -339 338"/>
    <vehicle id="1" depart="1.50" route="r1"/>
    <route id="r2" edges="369 415 -424 -387 -360 -225 -166 -53 59 172 227 rbX_226_in rbX_ring_NW rbX_ring_WS rbX_366_out -370"/>
    <vehicle id="2" depart="3.00" route="r2"/>
    <route id="r3" edges="-424 -387 -360 -225"/>
    <vehicle id="3" depart="4.50" route="r3"/>
    <route id="r4" edges="-405 -369 -229 -184 172 227 361 -231 233 372 417"/>
    <vehicle id="4" depart="6.00" route="r4"/>
    <route id="r5" edges="-193 -166 -53 59 172 227"/>
    <vehicle id="5" depart="7.50" route="r5"/>
    <route id="r6" edges="-440 -393 -370 -231 233 372 417"/>
    <vehicle id="6" depart="9.00" route="r6"/>
    <route id="r7" edges="-405 415 -424 -387 -360 354 384 387 424"/>
    <vehicle id="7" depart="10.50" route="r7"/>
    <route id="r8" edges="-9 3 38 59 172 227 rbX_226_in rbX_ring_NW rbX_ring_WS rbX_366_out 393 430"/>
    <vehicle id="8" depart="12.00" route="r8"/>
    <route id="r9" edges="-417 -372 -233 231 -361 -227 -172 -59"/>
    <vehicle id="9" depart="13.50" route="r9"/>
    <route id="r10" edges="53 166 193 352 383"/>
    <vehicle id="10" depart="15.00" route="r10"/>
    <route id="r11" edges="-372 -233 -186 -25 -9 7 -52 -38"/>
    <vehicle id="11" depart="16.50" route="r11"/>
    <route id="r12" edges="231 -361 -227 -172 -59 53 166 225 360 391 426"/>
    <vehicle id="12" depart="18.00" route="r12"/>
    <vehicle id="13" depart="19.50" route="r8"/>
    <route id="r13" edges="-430 -393 -370 -361 rbX_226_in"/>
    <vehicle id="14" depart="21.00" route="r13"/>
    <route id="r14" edges="191 339 360 391 426"/>
    <vehicle id="15" depart="22.50" route="r14"/>
    <route id="r15" edges="3 38 53 166 191 338 418"/>
    <vehicle id="16" depart="24.00" route="r15"/>
    <route id="r16" edges="-405 415 -424 -387 -360 -225 193 352 383"/>
    <vehicle id="18" depart="27.00" route="r16"/>
    <route id="r17" edges="-361 -227 -172 -59 53 166 193 352"/>
    <vehicle id="19" depart="28.50" route="r17"/>
    <route id="r18" edges="-436 -393 rbX_366_in rbX_ring_SE rbX_ring_EN rbX_226_out -227 -172 184 229 369 405"/>
    <vehicle id="20" depart="30.00" route="r18"/>
    <route id="r19" edges="-407 -369 -229 -184 172 227 rbX_226_in rbX_ring_NW rbX_ring_WS rbX_366_out 403 446"/>
    <vehicle id="21" depart="31.50" route="r19"/>
    <route id="r20" edges="-440 -393 rbX_366_in rbX_ring_SE rbX_ring_EN rbX_226_out -227 -172 -59 53 166 225 360 391 426"/>
    <vehicle id="22" depart="33.00" route="r20"/>
    <route id="r21" edges="-383 -352 -193 -166 -53 59 172 227 rbX_226_in rbX_ring_NW rbX_ring_WS rbX_366_out 393 430"/>
    <vehicle id="23" depart="34.50" route="r21"/>
    <route id="r22" edges="-383 -352 -193 225 360 387 424 -415 405"/>
    <vehicle id="24" depart="36.00" route="r22"/>
    <route id="r23" edges="rbX_ring_NW rbX_ring_WS rbX_ring_SE rbX_ring_EN rbX_226_out -227 -172 -59 53 166 225 360 391 426"/>
    <vehicle id="25" depart="37.50" route="r23"/>
    <route id="r24" edges="227 rbX_226_in rbX_ring_NW rbX_ring_WS rbX_366_out 393 436"/>
    <vehicle id="26" depart="39.00" route="r24"/>
    <route id="r25" edges="-405 415 -424 -387 -360 -225"/>
    <vehicle id="27" depart="40.50" route="r25"/>
    <route id="r26" edges="-407 415 -424 -387 -360 -225 193 352 381"/>
    <vehicle id="28" depart="42.00" route="r26"/>
    <route id="r27" edges="-405 -369 -229 -184 172 227 rbX_226_in rbX_ring_NW rbX_ring_WS rbX_366_out 403 446"/>
    <vehicle id="29" depart="43.50" route="r27"/>
    <route id="r28" edges="-440 -393 rbX_366_in rbX_ring_SE rbX_ring_EN rbX_226_out -227 -172 184 229 369 405"/>
    <vehicle id="30" depart="45.00" route="r28"/>
    <route id="r29" edges="387 424 -415 407"/>
    <vehicle id="31" depart="46.50" route="r29"/>
    <route id="r30" edges="-430 -393 -370 -231 -186 -25 -9 3 38"/>
    <vehicle id="32" depart="48.00" route="r30"/>
    <route id="r31" edges="-417 -372 -233 -186 -25 -9 3"/>
    <vehicle id="33" depart="49.50" route="r31"/>
    <route id="r32" edges="rbX_ring_WS rbX_366_out -370 -231 233 372 417"/>
    <vehicle id="34" depart="51.00" route="r32"/>
    <route id="r33" edges="-372 -233 -186 -25 -9 19 51 166 189 -234"/>
    <vehicle id="35" depart="52.50" route="r33"/>
    <route id="r34" edges="-383 -352 -193 225 360 391 426"/>
    <vehicle id="36" depart="54.00" route="r34"/>
    <route id="r35" edges="-52 59 184 229 369 405"/>
    <vehicle id="37" depart="55.50" route="r35"/>
    <route id="r36" edges="-339 -191 225 360 387 424 -415 405"/>
    <vehicle id="38" depart="57.00" route="r36"/>
    <route id="r37" edges="rbX_ring_SE rbX_ring_EN rbX_ring_NW rbX_ring_WS rbX_366_out -370 -231 233 372 417"/>
    <vehicle id="39" depart="58.50" route="r37"/>
    <route id="r38" edges="9 25 186 231 370 393 440"/>
    <vehicle id="40" depart="60.00" route="r38"/>
    <route id="r39" edges="-186 -25 -9 3 38 59 172 227 rbX_226_in rbX_ring_NW rbX_ring_WS rbX_366_out 393 430"/>
    <vehicle id="41" depart="61.50" route="r39"/>
    <vehicle id="42" depart="63.00" route="r6"/>
    <route id="r40" edges="-407 415 -424 -387 391 426"/>
    <vehicle id="43" depart="64.50" route="r40"/>
    <route id="r41" edges="-383 -352 -193 225 360 387 424 -415 407"/>
    <vehicle id="44" depart="66.00" route="r41"/>
    <route id="r42" edges="-426 -391 -360 -225 -166 -53 52"/>
    <vehicle id="45" depart="67.50" route="r42"/>
    <route id="r43" edges="352 381 -418 -338 -191 -166 -51 -19 3 38"/>
    <vehicle id="46" depart="69.00" route="r43"/>
    <route id="r44" edges="-430 -393 rbX_366_in rbX_ring_SE rbX_ring_EN rbX_226_out -227 -172 -59 53 166 189"/>
    <vehicle id="47" depart="70.50" route="r44"/>
    <route id="r45" edges="384 -360 -225 -166 -53 59 172 227 rbX_226_in rbX_ring_NW rbX_ring_WS rbX_366_out 393 440"/>
    <vehicle id="48" depart="72.00" route="r45"/>
    <vehicle id="49" depart="73.50" route="r40"/>
    <route id="r46" edges="-436 -393 -370 -231 -186 -25 -9 19 51 -53"/>
    <vehicle id="50" depart="75.00" route="r46"/>
    <route id="r47" edges="-446 -403 -370 -231 233 372 417"/>
    <vehicle id="51" depart="76.50" route="r47"/>
    <vehicle id="52" depart="78.00" route="r47"/>
    <route id="r48" edges="-19 3 38 59 172 227 rbX_226_in rbX_ring_NW rbX_ring_WS rbX_366_out 403 446"/>
    <vehicle id="53" depart="79.50" route="r48"/>
    <route id="r49" edges="354 384 -360 -225 -166 -53 59 172 227 rbX_226_in rbX_ring_NW rbX_ring_WS rbX_366_out 393 440"/>
    <vehicle id="54" depart="81.00" route="r49"/>
    <route id="r50" edges="-407 415 -424 -387 -360 -225 193 352 381 -418 -338"/>
    <vehicle id="55" depart="82.50" route="r50"/>
    <route id="r51" edges="-352 -193 -166 -53 59 172 227 rbX_226_in rbX_ring_NW rbX_ring_WS rbX_366_out 393 436"/>
    <vehicle id="56" depart="84.00" route="r51"/>
    <route id="r52" edges="-446 -403 rbX_366_in rbX_ring_SE rbX_ring_EN rbX_226_out -227 -172 -59 53 166 193 352 381 -418"/>
    <vehicle id="57" depart="85.50" route="r52"/>
    <route id="r53" edges="-426 -391 -360 -225 -166 -51 -19 9 25 186 233 372 417"/>
    <vehicle id="58" depart="87.00" route="r53"/>
    <route id="r54" edges="-407 -369 -229 -184 172 227 rbX_226_in rbX_ring_NW rbX_ring_WS rbX_366_out 393 440"/>
    <vehicle id="59" depart="88.50" route="r54"/>
    <route id="r55" edges="-424 -387 -360 -225 -166 -51 49 234"/>
    <vehicle id="60" depart="90.00" route="r55"/>
    <vehicle id="61" depart="91.50" route="r16"/>
    <route id="r56" edges="rbX_ring_SE rbX_ring_EN rbX_226_out -227 -172 -59 53 166 225 360 391 426"/>
    <vehicle id="62" depart="93.00" route="r56"/>
    <vehicle id="63" depart="94.50" route="r53"/>
    <route id="r57" edges="-383 -352 -193 191 338"/>
    <vehicle id="64" depart="96.00" route="r57"/>
    <route id="r58" edges="-405 -369 -229 -184 -59 52 -7 3"/>
    <vehicle id="65" depart="97.50" route="r58"/>
    <route id="r59" edges="-352 -193 225 360 391 426"/>
    <vehicle id="66" depart="99.00" route="r59"/>
    <vehicle id="67" depart="100.50" route="r27"/>
    <route id="r60" edges="-405 -369 -229 -184 172 227 rbX_226_in rbX_ring_NW rbX_ring_WS rbX_366_out 393 430"/>
    <vehicle id="68" depart="102.00" route="r60"/>
    <route id="r61" edges="-405 415 -424 -387 391 -423"/>
    <vehicle id="69" depart="103.50" route="r61"/>
    <route id="r62" edges="418 -381 -352 340 -234 -49 -19 9 25 186 233 372 417"/>
    <vehicle id="70" depart="105.00" route="r62"/>
    <route id="r63" edges="-426 -391 -360 -225 -166 -53 59 172 227 rbX_226_in rbX_ring_NW rbX_ring_WS rbX_366_out 393 436"/>
    <vehicle id="71" depart="106.50" route="r63"/>
    <route id="r64" edges="166 193"/>
    <vehicle id="72" depart="108.00" route="r64"/>
    <route id="r65" edges="-38 -3 7 -52 59 184 229 369 407"/>
    <vehicle id="73" depart="109.50" route="r65"/>
    <route id="r66" edges="-417 -372 -233 -186 -25 -9 19 49 234 -189 225 354 384"/>
    <vehicle id="74" depart="111.00" route="r66"/>
    <route id="r67" edges="3 38 59 184 229 369"/>
    <vehicle id="75" depart="112.50" route="r67"/>
    <route id="r68" edges="-403 rbX_366_in rbX_ring_SE rbX_ring_EN rbX_226_out -227 -172 184 229 369 407"/>
    <vehicle id="76" depart="114.00" route="r68"/>
    <route id="r69" edges="-424 -387 -360 -225 193 352 383"/>
    <vehicle id="77" depart="115.50" route="r69"/>
    <vehicle id="78" depart="117.00" route="r27"/>
    <route id="r70" edges="-426 -391 -360 -225 -166 -53 59 172 227 rbX_226_in rbX_ring_NW rbX_ring_WS rbX_366_out 393 440"/>
    <vehicle id="79" depart="118.50" route="r70"/>
    <route id="r71" edges="-430 -393 -370 -231 -186 -25"/>
    <vehicle id="80" depart="120.00" route="r71"/>
    <route id="r72" edges="9 25 186 231 370 403 446"/>
    <vehicle id="81" depart="121.50" route="r72"/>
    <route id="r73" edges="231 -361 -227 -172 -59 53 166"/>
    <vehicle id="82" depart="123.00" route="r73"/>
    <route id="r74" edges="-426 -391 -360 -225 -166 -51 49 234"/>
    <vehicle id="83" depart="124.50" route="r74"/>
    <route id="r75" edges="-417 -372 -233 -186 -25 -9 19 49 234 -340 352 381 -418 -338"/>
    <vehicle id="84" depart="126.00" route="r75"/>
    <route id="r76" edges="-417 -372 -233 231 -361 rbX_226_in rbX_ring_NW rbX_ring_WS rbX_366_out"/>
    <vehicle id="85" depart="127.50" route="r76"/>
    <route id="r77" edges="-407 -369 -229 -184 172 227 rbX_226_in rbX_ring_NW rbX_ring_WS rbX_366_out 393 436"/>
    <vehicle id="86" depart="129.00" route="r77"/>
    <route id="r78" edges="-426 -391 387 424 -415 405"/>
    <vehicle id="87" depart="130.50" route="r78"/>
    <route id="r79" edges="53 -51 -19 3 38 59 172 227 rbX_226_in rbX_ring_NW rbX_ring_WS rbX_ring_SE"/>
    <vehicle id="88" depart="132.00" route="r79"/>
    <route id="r80" edges="9 25 186 231 -361 -227 -172 -59 53 166 193 352 377 420"/>
    <vehicle id="89" depart="133.50" route="r80"/>
    <route id="r81" edges="-383 -352 -193 -166 -53 59"/>
    <vehicle id="90" depart="135.00" route="r81"/>
    <route id="r82" edges="-361 -227 -172 -59 53 166 191"/>
    <vehicle id="91" depart="136.50" route="r82"/>
    <route id="r83" edges="369 415 -424 -387 -360 -225 -166 -53 59 172 227 361"/>
    <vehicle id="93" depart="139.50" route="r83"/>
    <route id="r84" edges="-436 -393 rbX_366_in rbX_ring_SE rbX_ring_EN rbX_226_out -227 -172 -59 53 166 225 360 391 426"/>
    <vehicle id="94" depart="141.00" route="r84"/>
    <vehicle id="95" depart="142.50" route="r60"/>
    <route id="r85" edges="-440 -393 rbX_366_in rbX_ring_SE rbX_ring_EN rbX_226_out -227 -172 -59 53 166 193 352 383"/>
    <vehicle id="96" depart="144.00" route="r85"/>
    <vehicle id="97" depart="145.50" route="r77"/>
    <route id="r86" edges="-354 360 387 424 -415 407"/>
    <vehicle id="98" depart="147.00" route="r86"/>
    <route id="r87" edges="-354 -225 -166 -51 49 234"/>
    <vehicle id="99" depart="148.50" route="r87"/>
    <vehicle id="100" depart="150.00" route="r19"/>
    <route id="r88" edges="354 384 -360 -225 -166 -53 59 172 227 rbX_226_in rbX_ring_NW rbX_ring_WS rbX_366_out 403 446"/>
    <vehicle id="101" depart="151.50" route="r88"/>
    <route id="r89" edges="-417 -372 -233 -186 -25 -9 3 38 52 -7"/>
    <vehicle id="102" depart="153.00" route="r89"/>
    <route id="r90" edges="193 340 -234 -49 -19 9 25 186 231 370 393 430"/>
    <vehicle id="103" depart="154.50" route="r90"/>
    <route id="r91" edges="-440 -393 rbX_366_in rbX_ring_SE rbX_ring_EN rbX_226_out -227 -172 -59 53 166 225 360 387 424 -415 -369 -229 -184"/>
    <vehicle id="104" depart="156.00" route="r91"/>
    <route id="r92" edges="184 229 369 415 -424 -387 -360 -225 193 352 383"/>
    <vehicle id="105" depart="157.50" route="r92"/>
    <route id="r93" edges="-383 -352 340 -234 -49 -19 9 25 186 233 372 417"/>
    <vehicle id="107" depart="160.50" route="r93"/>
    <vehicle id="108" depart="162.00" route="r40"/>
    <route id="r94" edges="-436 -393 -370 -231 -186 -25 -9 3 38"/>
    <vehicle id="109" depart="163.50" route="r94"/>
    <route id="r95" edges="-426 -391 -360 -225 -166 -53 59 172 227 rbX_226_in rbX_ring_NW rbX_ring_WS rbX_366_out 403 446"/>
    <vehicle id="110" depart="165.00" route="r95"/>
    <vehicle id="112" depart="168.00" route="r69"/>
    <route id="r96" edges="-166 -53 59 172 227 rbX_226_in rbX_ring_NW rbX_ring_WS rbX_366_out 393 436"/>
    <vehicle id="113" depart="169.50" route="r96"/>
    <vehicle id="114" depart="171.00" route="r94"/>
    <vehicle id="115" depart="172.50" route="r47"/>
    <route id="r97" edges="-426 -391 387 424 -415 -369 -229 -184"/>
    <vehicle id="116" depart="174.00" route="r97"/>
    <route id="r98" edges="-360 -225 -166 -53 59 172 227 rbX_226_in rbX_ring_NW rbX_ring_WS rbX_366_out 403 446"/>
    <vehicle id="117" depart="175.50" route="r98"/>
    <route id="r99" edges="38 59 172 227 361 -231 233 372 417"/>
    <vehicle id="118" depart="177.00" route="r99"/>
    <route id="r100" edges="193 340 -189 225 354 423"/>
    <vehicle id="119" depart="178.50" route="r100"/>
    <route id="r101" edges="-383 381 -418"/>
    <vehicle id="120" depart="180.00" route="r101"/>
    <vehicle id="121" depart="181.50" route="r19"/>
    <route id="r102" edges="-53 59 172 227 rbX_226_in rbX_ring_NW rbX_ring_WS rbX_366_out 393 440"/>
    <vehicle id="122" depart="183.00" route="r102"/>
    <route id="r103" edges="-405 415 -424 -387 -360 -339 338 418 -381"/>
    <vehicle id="123" depart="184.50" route="r103"/>
    <route id="r104" edges="-417 -372 -233 -186 -25 -9 19 49 234 -189 225 360 391 426"/>
    <vehicle id="124" depart="186.00" route="r104"/>
    <route id="r105" edges="-383 -352 -193 -166 -53 59 172 227 rbX_226_in rbX_ring_NW rbX_ring_WS rbX_366_out 403 446"/>
    <vehicle id="125" depart="187.50" route="r105"/>
    <route id="r106" edges="338 418 -381 -352 -193 -166 -53 59 172 227 rbX_226_in rbX_ring_NW rbX_ring_WS rbX_ring_SE rbX_ring_EN rbX_226_out"/>
    <vehicle id="126" depart="189.00" route="r106"/>
    <route id="r107" edges="172 227 rbX_226_in rbX_ring_NW rbX_ring_WS rbX_366_out 403 446"/>
    <vehicle id="127" depart="190.50" route="r107"/>
    <route id="r108" edges="-191 -166 -53 59 172 227 rbX_226_in rbX_ring_NW rbX_ring_WS rbX_366_out 393 436"/>
    <vehicle id="128" depart="192.00" route="r108"/>
    <vehicle id="129" depart="193.50" route="r19"/>
    <route id="r109" edges="172 227 rbX_226_in rbX_ring_NW rbX_ring_WS rbX_ring_SE rbX_ring_EN rbX_226_out -227 -172 -59 53 166 193 352 381"/>
    <vehicle id="130" depart="195.00" route="r109"/>
    <route id="r110" edges="340 -234 -49 -19 9 25 186 231 370 393 440"/>
    <vehicle id="131" depart="196.50" route="r110"/>
    <route id="r111" edges="-405 -369 -229 -184 172 227 rbX_226_in rbX_ring_NW rbX_ring_WS rbX_366_out 393 440"/>
    <vehicle id="132" depart="198.00" route="r111"/>
    <route id="r112" edges="-426 -391 -360 -225 193 352 383"/>
    <vehicle id="133" depart="199.50" route="r112"/>
    <vehicle id="134" depart="201.00" route="r54"/>
    <route id="r113" edges="7 -52 53 166 193 352 383"/>
    <vehicle id="135" depart="202.50" route="r113"/>
    <vehicle id="136" depart="204.00" route="r28"/>
    <route id="r114" edges="rbX_366_in rbX_ring_SE rbX_ring_EN rbX_ring_NW rbX_ring_WS rbX_366_out -370 -231 233 372 417"/>
    <vehicle id="137" depart="205.50" route="r114"/>
    <route id="r115" edges="59 184 229 369 415 -424 -387 -360 -225 193 352 381"/>
    <vehicle id="139" depart="208.50" route="r115"/>
    <vehicle id="140" depart="210.00" route="r41"/>
    <route id="r116" edges="-446 -403 rbX_366_in rbX_ring_SE rbX_ring_EN rbX_226_out -227 -172 -59 53 166 193 352 383"/>
    <vehicle id="141" depart="211.50" route="r116"/>
    <route id="r117" edges="-436 -393 -370 -231 233 372 417"/>
    <vehicle id="142" depart="213.00" route="r117"/>
    <route id="r118" edges="-417 -372 -233 -186 -25 -9 19 49 234 -189 191 338 418"/>
    <vehicle id="143" depart="214.50" route="r118"/>
    <vehicle id="144" depart="216.00" route="r60"/>
    <route id="r119" edges="-166 -53 59 172 227 rbX_226_in rbX_ring_NW rbX_ring_WS rbX_366_out 403 446"/>
    <vehicle id="145" depart="217.50" route="r119"/>
    <route id="r120" edges="-417 -372 -233 -186 -25 -9 19 49 234 -189 191 338 418 -381 -352"/>
    <vehicle id="146" depart="219.00" route="r120"/>
    <vehicle id="147" depart="220.50" route="r85"/>
    <vehicle id="148" depart="222.00" route="r54"/>
    <vehicle id="149" depart="223.50" route="r116"/>
    <route id="r121" edges="-417 -372 -233 -186 -25 -9 19 49 234 -340 352 383"/>
    <vehicle id="150" depart="225.00" route="r121"/>
    <vehicle id="151" depart="226.50" route="r22"/>
    <route id="r122" edges="423 -391 -360 -225 -166 -53 59 172 227 rbX_226_in rbX_ring_NW rbX_ring_WS rbX_366_out 393 430"/>
    <vehicle id="152" depart="228.00" route="r122"/>
    <route id="r123" edges="377 420 -418 -338 339 360 391 426"/>
    <vehicle id="153" depart="229.50" route="r123"/>
    <route id="r124" edges="-407 -369 -229 -184 172 227 361 -231 233 372 417"/>
    <vehicle id="154" depart="231.00" route="r124"/>
    <route id="r125" edges="-426 -391 -360 -225 193 352 377 420"/>
    <vehicle id="155" depart="232.50" route="r125"/>
    <route id="r126" edges="-440 -393 rbX_366_in rbX_ring_SE rbX_ring_EN rbX_226_out -227 -172 184 229 369 407"/>
    <vehicle id="156" depart="234.00" route="r126"/>
    <vehicle id="157" depart="235.50" route="r74"/>
    <vehicle id="158" depart="237.00" route="r95"/>
    <route id="r127" edges="-53 59 172"/>
    <vehicle id="159" depart="238.50" route="r127"/>
    <route id="r128" edges="-369 -229 -184 172 227 361 -231 233 372 417"/>
    <vehicle id="160" depart="240.00" route="r128"/>
    <route id="r129" edges="-436 -393 rbX_366_in rbX_ring_SE rbX_ring_EN rbX_226_out -227 -172 -59 53 166 193 352 383"/>
    <vehicle id="161" depart="241.50" route="r129"/>
    <route id="r130" edges="186 231 370 393 436"/>
    <vehicle id="162" depart="243.00" route="r130"/>
    <route id="r131" edges="-440 -393 rbX_366_in rbX_ring_SE rbX_ring_EN rbX_226_out -227 -172 -59 53 166 191 338"/>
    <vehicle id="163" depart="244.50" route="r131"/>
    <route id="r132" edges="-405 415 -424 -387 -360 -339 -191"/>
    <vehicle id="164" depart="246.00" route="r132"/>
    <route id="r133" edges="231 -361 -227 -172 -59 53 166 225 360 -384 -354"/>
    <vehicle id="165" depart="247.50" route="r133"/>
    <route id="r134" edges="-420 -377 -352 -193 225 360 391 426"/>
    <vehicle id="166" depart="249.00" route="r134"/>
    <vehicle id="167" depart="250.50" route="r60"/>
    <route id="r135" edges="-426 -391 -360 -225 -166 -53 59 172 227 361"/>
    <vehicle id="168" depart="252.00" route="r135"/>
    <route id="r136" edges="-440 -393 rbX_366_in rbX_ring_SE rbX_ring_EN rbX_226_out -227 -172"/>
    <vehicle id="169" depart="253.50" route="r136"/>
    <vehicle id="170" depart="255.00" route="r22"/>
    <vehicle id="171" depart="256.50" route="r71"/>
    <vehicle id="172" depart="258.00" route="r111"/>
    <vehicle id="173" depart="259.50" route="r63"/>
    <route id="r137" edges="-436 -393 -370 -231 -186 -25 -9 19 51"/>
    <vehicle id="174" depart="261.00" route="r137"/>
    <route id="r138" edges="369 415 -424 -387 391 426"/>
    <vehicle id="175" depart="262.50" route="r138"/>
    <vehicle id="176" depart="264.00" route="r47"/>
    <route id="r139" edges="191 339 -225 -166 -51 -19 9 25 186 233 372 417"/>
    <vehicle id="177" depart="265.50" route="r139"/>
    <route id="r140" edges="-426 -391 -360 -225 193 352 377"/>
    <vehicle id="179" depart="268.50" route="r140"/>
    <route id="r141" edges="-405 415 -424 -387 391 426"/>
    <vehicle id="180" depart="270.00" route="r141"/>
    <vehicle id="181" depart="271.50" route="r47"/>
    <vehicle id="182" depart="273.00" route="r129"/>
    <route id="r142" edges="-360 -225 193 352 383"/>
    <vehicle id="183" depart="274.50" route="r142"/>
    <route id="r143" edges="-407 415 -424 -387 -360 -225 193 352 383"/>
    <vehicle id="184" depart="276.00" route="r143"/>
    <route id="r144" edges="-430 -393 rbX_366_in rbX_ring_SE rbX_ring_EN rbX_226_out -227 -172 184 229 369 415 -424"/>
    <vehicle id="185" depart="277.50" route="r144"/>
    <vehicle id="186" depart="279.00" route="r60"/>
    <route id="r145" edges="-440 -393 rbX_366_in rbX_ring_SE rbX_ring_EN rbX_226_out -227 -172 -59 53 166 225 -339"/>
    <vehicle id="187" depart="280.50" route="r145"/>
    <route id="r146" edges="-420 -377 -352 340 -234 -49 -19 9 25 186 231"/>
    <vehicle id="188" depart="282.00" route="r146"/>
    <route id="r147" edges="-423 -354 -225 -166 -53 59 172 227 rbX_226_in rbX_ring_NW rbX_ring_WS rbX_366_out 403 446"/>
    <vehicle id="189" depart="283.50" route="r147"/>
    <route id="r148" edges="234 -189 -166 -53 59 172 227 rbX_226_in rbX_ring_NW rbX_ring_WS rbX_366_out 393 436"/>
    <vehicle id="190" depart="285.00" route="r148"/>
    <route id="r149" edges="-417 -372 -233 231 -361 -227 -172"/>
    <vehicle id="191" depart="286.50" route="r149"/>
    <route id="r150" edges="-417 -372 -233 231 370 393 436"/>
    <vehicle id="192" depart="288.00" route="r150"/>
    <route id="r151" edges="-423 -354 -225 -166 -53 59 172 227 rbX_226_in rbX_ring_NW rbX_ring_WS rbX_366_out 393 436"/>
    <vehicle id="194" depart="291.00" route="r151"/>
    <route id="r152" edges="-430 -393 rbX_366_in rbX_ring_SE rbX_ring_EN rbX_226_out -227 -172 -59 53 166 225 360 391 426"/>
    <vehicle id="195" depart="292.50" route="r152"/>
    <vehicle id="196" depart="294.00" route="r58"/>
    <route id="r153" edges="-426 -391 -360 -225"/>
    <vehicle id="197" depart="295.50" route="r153"/>
    <route id="r154" edges="-415 -369 -229 -184 172 227 rbX_226_in rbX_ring_NW rbX_ring_WS rbX_366_out 393 430"/>
    <vehicle id="198" depart="297.00" route="r154"/>
    <route id="r155" edges="-417 -372 -233 -186 -25 -9 19 51 166"/>
    <vehicle id="199" depart="298.50" route="r155"/>
    <route id="r156" edges="-436 -393 -370 -231 -186 -25 -9 19 49 234 -340 -193"/>
    <vehicle id="200" depart="300.00" route="r156"/>
    <route id="r157" edges="-193 225 360 391 426"/>
    <vehicle id="201" depart="301.50" route="r157"/>
    <vehicle id="202" depart="303.00" route="r41"/>
    <route id="r158" edges="-25 -9 3 38 59 184 229 369 405"/>
    <vehicle id="203" depart="304.50" route="r158"/>
    <vehicle id="204" depart="306.00" route="r16"/>
    <route id="r159" edges="-446 -403 rbX_366_in rbX_ring_SE rbX_ring_EN rbX_226_out -227 -172 184 229 369 405"/>
    <vehicle id="205" depart="307.50" route="r159"/>
    <route id="r160" edges="-405 -369 -229 -184 172 227 rbX_226_in rbX_ring_NW rbX_ring_WS rbX_366_out -370 -361"/>
    <vehicle id="206" depart="309.00" route="r160"/>
    <route id="r161" edges="-19 9 25 186 233 372 417"/>
    <vehicle id="207" depart="310.50" route="r161"/>
    <route id="r162" edges="rbX_ring_WS rbX_ring_SE rbX_ring_EN rbX_226_out -227 -172 -59 53 166 225 360 391"/>
    <vehicle id="208" depart="312.00" route="r162"/>
    <route id="r163" edges="49 234 -189 -166 -53 59 172 227"/>
    <vehicle id="209" depart="313.50" route="r163"/>
    <vehicle id="210" depart="315.00" route="r21"/>
    <route id="r164" edges="-430 -393 -370 -231 -186 -25 -9 3"/>
    <vehicle id="211" depart="316.50" route="r164"/>
    <vehicle id="212" depart="318.00" route="r34"/>
    <route id="r165" edges="-407 -369 -229 -184 172 227 rbX_226_in rbX_ring_NW rbX_ring_WS rbX_366_out 393 430"/>
    <vehicle id="213" depart="319.50" route="r165"/>
    <route id="r166" edges="53 166 225 360 387 424 -415 405"/>
    <vehicle id="214" depart="321.00" route="r166"/>
    <route id="r167" edges="-446 -403 rbX_366_in rbX_ring_SE rbX_ring_EN rbX_226_out -227 -172 184 229 369 415 -424 -387 -360"/>
    <vehicle id="215" depart="322.50" route="r167"/>
    <vehicle id="216" depart="324.00" route="r20"/>
    <route id="r168" edges="-381 -352 -193 -166 -53 59 172 227 rbX_226_in rbX_ring_NW rbX_ring_WS rbX_366_out 393 436"/>
    <vehicle id="217" depart="325.50" route="r168"/>
    <route id="r169" edges="-383 -352 -193 -166 -53 59 172 227 rbX_226_in rbX_ring_NW rbX_ring_WS rbX_366_out"/>
    <vehicle id="219" depart="328.50" route="r169"/>
    <route id="r170" edges="-49 51 166 225 360 391"/>
    <vehicle id="220" depart="330.00" route="r170"/>
    <vehicle id="221" depart="331.50" route="r78"/>
    <route id="r171" edges="-430 -393 rbX_366_in rbX_ring_SE rbX_ring_EN rbX_226_out -227 -172 -59 53 166 225 354 384"/>
    <vehicle id="222" depart="333.00" route="r171"/>
    <route id="r172" edges="231 370 393 440"/>
    <vehicle id="223" depart="334.50" route="r172"/>
    <vehicle id="224" depart="336.00" route="r81"/>
    <vehicle id="225" depart="337.50" route="r126"/>
    <route id="r173" edges="-446 -403 -370 -231 -186 -25 -9 7"/>
    <vehicle id="226" depart="339.00" route="r173"/>
    <vehicle id="227" depart="340.50" route="r54"/>
    <route id="r174" edges="-430 -393 rbX_366_in rbX_ring_SE rbX_ring_EN rbX_226_out -227 -172 184 229 369 407"/>
    <vehicle id="228" depart="342.00" route="r174"/>
    <route id="r175" edges="-426 -391 -360 -225 -166 -53 59 172 227 rbX_226_in rbX_ring_NW rbX_ring_WS rbX_366_out 393 430"/>
    <vehicle id="229" depart="343.50" route="r175"/>
    <vehicle id="230" depart="345.00" route="r54"/>
    <route id="r176" edges="191 339 -225 -166 -53 59 172 227 rbX_226_in rbX_ring_NW rbX_ring_WS rbX_366_out -370"/>
    <vehicle id="231" depart="346.50" route="r176"/>
    <route id="r177" edges="354 384 -360 -225 -166 -53 59 172 227 361"/>
    <vehicle id="232" depart="348.00" route="r177"/>
    <route id="r178" edges="-417 -372 -233 -186 -25 -9 19 49 234 -189 191 339 -225"/>
    <vehicle id="233" depart="349.50" route="r178"/>
    <route id="r179" edges="-405 -369 -229 -184 172 227 rbX_226_in rbX_ring_NW rbX_ring_WS rbX_366_out 393 436"/>
    <vehicle id="234" depart="351.00" route="r179"/>
    <route id="r180" edges="-417 -372 -233 231 370 403 446"/>
    <vehicle id="235" depart="352.50" route="r180"/>
    <vehicle id="236" depart="354.00" route="r85"/>
    <route id="r181" edges="-369 -229 -184 172 227 rbX_226_in rbX_ring_NW rbX_ring_WS rbX_366_out 393 430"/>
    <vehicle id="237" depart="355.50" route="r181"/>
    <vehicle id="238" depart="357.00" route="r63"/>
    <vehicle id="239" depart="358.50" route="r20"/>
    <vehicle id="240" depart="360.00" route="r63"/>
    <vehicle id="241" depart="361.50" route="r85"/>
    <route id="r182" edges="-436 -393 rbX_366_in rbX_ring_SE rbX_ring_EN rbX_226_out -227 -172 184 229 369 407"/>
    <vehicle id="242" depart="363.00" route="r182"/>
    <route id="r183" edges="-430 -393 rbX_366_in rbX_ring_SE rbX_ring_EN rbX_226_out -227 -172 184 229 369 405"/>
    <vehicle id="243" depart="364.50" route="r183"/>
    <vehicle id="244" depart="366.00" route="r116"/>
    <vehicle id="245" depart="367.50" route="r85"/>
    <route id="r184" edges="-391 -360 -225 -166 -51 -19 9 25"/>
    <vehicle id="247" depart="370.50" route="r184"/>
    <vehicle id="248" depart="372.00" route="r175"/>
    <route id="r185" edges="rbX_226_out 361 -231 233 372 417"/>
    <vehicle id="249" depart="373.50" route="r185"/>
    <route id="r186" edges="-407 415 -424 -387 -360 -339 338 418 -381"/>
    <vehicle id="250" depart="375.00" route="r186"/>
    <route id="r187" edges="-405 415 -424 -387 -360 -225 191 339"/>
    <vehicle id="251" depart="376.50" route="r187"/>
    <route id="r188" edges="-387 -360 -225 -166 -53 59 172 227 361 -231 -186"/>
    <vehicle id="252" depart="378.00" route="r188"/>
    <route id="r189" edges="-430 -393 rbX_366_in rbX_ring_SE rbX_ring_EN rbX_226_out -227 -172 -59 53 166 193 352 383"/>
    <vehicle id="253" depart="379.50" route="r189"/>
    <route id="r190" edges="rbX_226_in rbX_ring_NW rbX_ring_WS rbX_366_out -370 -231 233 372 417"/>
    <vehicle id="254" depart="381.00" route="r190"/>
    <route id="r191" edges="-440 -393 rbX_366_in rbX_ring_SE rbX_ring_EN rbX_226_out -227 -172 -59 53 166 193 352 381 -418"/>
    <vehicle id="255" depart="382.50" route="r191"/>
    <route id="r192" edges="339 360 387 424 -415 407"/>