<?xml version="1.0" encoding="UTF-8"?>

<!-- generated on 2026-07-17 17:25:07 by Eclipse SUMO netconvert Version 1.20.0
<configuration xmlns:xsi="http://www.w3.org/2001/XMLSchema-instance" xsi:noNamespaceSchemaLocation="http://sumo.dlr.de/xsd/netconvertConfiguration.xsd">

    <input>
        <node-files value="nodes.nod.xml"/>
        <edge-files value="edges.edg.xml"/>
    </input>

    <output>
        <output-file value="net.net.xml"/>
    </output>

</configuration>
-->

<net version="1.20" junctionCornerDetail="5" limitTurnSpeed="5.50" xmlns:xsi="http://www.w3.org/2001/XMLSchema-instance" xsi:noNamespaceSchemaLocation="http://sumo.dlr.de/xsd/net_file.xsd">

    <location netOffset="0.00,0.00" convBoundary="0.00,0.00,2500.00,0.00" origBoundary="0.00,0.00,2500.00,0.00" projParameter="!"/>

    <edge id="AB" from="A" to="B" priority="1">
        <lane id="AB_0" index="0" speed="13.89" length="2500.00" shape="0.00,-4.80 2500.00,-4.80"/>
        <lane id="AB_1" index="1" speed="13.89" length="2500.00" shape="0.00,-1.60 2500.00,-1.60"/>
    </edge>

    <junction id="A" type="dead_end" x="0.00" y="0.00" incLanes="" intLanes="" shape="0.00,0.00 0.00,-6.40"/>
    <junction id="B" type="dead_end" x="2500.00" y="0.00" incLanes="AB_0 AB_1" intLanes="" shape="2500.00,-6.40 2500.00,0.00"/>

</net>
