<?xml version="1.0" encoding="UTF-8"?>
<nodes>
    <node id="A" x="0" y="0" type="priority"/>
    <node id="B" x="2500" y="0" type="priority"/>
</nodes>
