<?xml version="1.0" encoding="UTF-8"?>
<routes xmlns:xsi="http://www.w3.org/2001/XMLSchema-instance" xsi:noNamespaceSchemaLocation="http://sumo.dlr.de/xsd/routes_file.xsd">
    <vType id="car" vClass="passenger" sigma="0"/>
    <route id="r0" edges="AB"/>
    <vehicle id="v0" type="car" route="r0" depart="0.0" departPos="0" departSpeed="max" departLane="0"/>
    <vehicle id="v1" type="car" route="r0" depart="1.0" departPos="0" departSpeed="max" departLane="1"/>
    <vehicle id="v2" type="car" route="r0" depart="2.0" departPos="0" departSpeed="max" departLane="0"/>
    <vehicle id="v3" type="car" route="r0" depart="3.0" departPos="0" departSpeed="max" departLane="1"/>
    <vehicle id="v4" type="car" route="r0" depart="4.0" departPos="0" departSpeed="max" departLane="0"/>
    <vehicle id="v5" type="car" route="r0" depart="5.0" departPos="0" departSpeed="max" departLane="1"/>
    <vehicle id="v6" type="car" route="r0" depart="6.0" departPos="0" departSpeed="max" departLane="0"/>
    <vehicle id="v7" type="car" route="r0" depart="7.0" departPos="0" departSpeed="max" departLane="1"/>
    <vehicle id="v8" type="car" route="r0" depart="8.0" departPos="0" departSpeed="max" departLane="0"/>
    <vehicle id="v9" type="car" route="r0" depart="9.0" departPos="0" departSpeed="max" departLane="1"/>
    <vehicle id="v10" type="car" route="r0" depart="10.0" departPos="0" departSpeed="max" departLane="0"/>
    <vehicle id="v11" type="car" route="r0" depart="11.0" departPos="0" departSpeed="max" departLane="1"/>
    <vehicle id="v12" type="car" route="r0" depart="12.0" departPos="0" departSpeed="max" departLane="0"/>
    <vehicle id="v13" type="car" route="r0" depart="13.0" departPos="0" departSpeed="max" departLane="1"/>
    <vehicle id="v14" type="car" route="r0" depart="14.0" departPos="0" departSpeed="max" departLane="0"/>
    <vehicle id="v15" type="car" route="r0" depart="15.0" departPos="0" departSpeed="max" departLane="1"/>
    <vehicle id="v16" type="car" route="r0" depart="16.0" departPos="0" departSpeed="max" departLane="0"/>
    <vehicle id="v17" type="car" route="r0" depart="17.0" departPos="0" departSpeed="max" departLane="1"/>
    <vehicle id="v18" type="car" route="r0" depart="18.0" departPos="0" departSpeed="max" departLane="0"/>
    <vehicle id="v19" type="car" route="r0" depart="19.0" departPos="0" departSpeed="max" departLane="1"/>
    <vehicle id="v20" type="car" route="r0" depart="20.0" departPos="0" departSpeed="max" departLane="0"/>
    <vehicle id="v21" type="car" route="r0" depart="21.0" departPos="0" departSpeed="max" departLane="1"/>
    <vehicle id="v22" type="car" route="r0" depart="22.0" departPos="0" departSpeed="max" departLane="0"/>
    <vehicle id="v23" type="car" route="r0" depart="23.0" departPos="0" departSpeed="max" departLane="1"/>
</routes>
