<?xml version="1.0" encoding="UTF-8"?>
<routes xmlns:xsi="http://www.w3.org/2001/XMLSchema-instance" xsi:noNamespaceSchemaLocation="http://sumo.dlr.de/xsd/routes_file.xsd">
    <vType id="car" vClass="passenger" sigma="0"/>
    <!-- vWest circulates: enters at RW, passes RS on the ring, exits east at RE. Sole vehicle, so
         the only thing exercised is the successive-lane free-flow speed cap on the curved ring
         internal lanes (:RW_1 9.11, :RS_1 5.58); no junction yield or merge with any foe. -->
    <route id="circulate" edges="WInRW RWtoRS RStoRE REEOut"/>
    <vehicle id="vWest" type="car" route="circulate" depart="0" departPos="0" departSpeed="13.89" departLane="0"/>
</routes>
