<?xml version="1.0" encoding="UTF-8"?>

<!-- generated on 2026-07-18 16:42:03 by Eclipse SUMO netconvert Version 1.20.0
<configuration xmlns:xsi="http://www.w3.org/2001/XMLSchema-instance" xsi:noNamespaceSchemaLocation="http://sumo.dlr.de/xsd/netconvertConfiguration.xsd">

    <input>
        <node-files value="nodes.nod.xml"/>
        <edge-files value="edges.edg.xml"/>
        <connection-files value="connections.con.xml"/>
    </input>

    <output>
        <output-file value="net.net.xml"/>
    </output>

    <junctions>
        <no-turnarounds value="true"/>
    </junctions>

</configuration>
-->

<net version="1.20" junctionCornerDetail="5" limitTurnSpeed="5.50" xmlns:xsi="http://www.w3.org/2001/XMLSchema-instance" xsi:noNamespaceSchemaLocation="http://sumo.dlr.de/xsd/net_file.xsd">

    <location netOffset="200.00,150.00" convBoundary="0.00,0.00,500.00,300.00" origBoundary="-200.00,-150.00,300.00,150.00" projParameter="!"/>

    <edge id=":J_0" function="internal">
        <lane id=":J_0_0" index="0" speed="13.89" length="11.20" shape="198.40,154.00 198.40,142.80"/>
    </edge>
    <edge id=":J_1" function="internal">
        <lane id=":J_1_0" index="0" speed="13.89" length="11.20" shape="192.80,148.40 204.00,148.40"/>
    </edge>

    <edge id="JE" from="J" to="E" priority="10">
        <lane id="JE_0" index="0" speed="13.89" length="296.00" shape="204.00,148.40 500.00,148.40"/>
    </edge>
    <edge id="JS" from="J" to="S" priority="1">
        <lane id="JS_0" index="0" speed="13.89" length="142.80" shape="198.40,142.80 198.40,0.00"/>
    </edge>
    <edge id="NJ" from="N" to="J" priority="1">
        <lane id="NJ_0" index="0" speed="13.89" length="146.00" shape="198.40,300.00 198.40,154.00"/>
    </edge>
    <edge id="WJ" from="W" to="J" priority="10">
        <lane id="WJ_0" index="0" speed="13.89" length="192.80" shape="0.00,148.40 192.80,148.40"/>
    </edge>

    <junction id="E" type="dead_end" x="500.00" y="150.00" incLanes="JE_0" intLanes="" shape="500.00,146.80 500.00,150.00"/>
    <junction id="J" type="priority" x="200.00" y="150.00" incLanes="NJ_0 WJ_0" intLanes=":J_0_0 :J_1_0" shape="196.80,154.00 200.00,154.00 200.44,151.78 201.00,151.00 201.78,150.44 202.78,150.11 204.00,150.00 204.00,146.80 201.78,146.36 201.00,145.80 200.44,145.02 200.11,144.02 200.00,142.80 196.80,142.80 196.36,145.02 195.80,145.80 195.02,146.36 194.02,146.69 192.80,146.80 192.80,150.00 195.02,150.44 195.80,151.00 196.36,151.78 196.69,152.78">
        <request index="0" response="10" foes="10" cont="0"/>
        <request index="1" response="00" foes="01" cont="0"/>
    </junction>
    <junction id="N" type="dead_end" x="200.00" y="300.00" incLanes="" intLanes="" shape="200.00,300.00 196.80,300.00"/>
    <junction id="S" type="dead_end" x="200.00" y="0.00" incLanes="JS_0" intLanes="" shape="196.80,0.00 200.00,0.00"/>
    <junction id="W" type="dead_end" x="0.00" y="150.00" incLanes="" intLanes="" shape="0.00,150.00 0.00,146.80"/>

    <connection from="NJ" to="JS" fromLane="0" toLane="0" via=":J_0_0" dir="s" state="m"/>
    <connection from="WJ" to="JE" fromLane="0" toLane="0" via=":J_1_0" dir="s" state="M"/>

    <connection from=":J_0" to="JS" fromLane="0" toLane="0" dir="s" state="M"/>
    <connection from=":J_1" to="JE" fromLane="0" toLane="0" dir="s" state="M"/>

</net>
