sumo_version=1.20.0
sumo_version_reported=Eclipse SUMO sumo Version 1.20.0
generated_utc=2026-07-18T16:48:06Z
command=sumo -c /home/user/SumoSharp/scenarios/70-parked-passable/config.sumocfg --fcd-output /home/user/SumoSharp/scenarios/70-parked-passable/golden.fcd.xml --fcd-output.acceleration --precision 6 --save-state.times 1 --save-state.files /home/user/SumoSharp/scenarios/70-parked-passable/golden.state.xml --no-step-log true
# golden.statistic.xml/golden.summary.xml regenerated by a second identical run (same net/rou/
# config, same seed 42) adding: --summary-output golden.summary.xml --statistic-output
# golden.statistic.xml -- matching scenarios/47-teleport-jam's own provenance pattern for the
# jam-teleport-count golden (StatisticOutputParser reads teleports/jam from it).
state_time=1
# input file hashes (sha256):
input=net.net.xml sha256=f6c8d2fe58399915a1ac6be8cf876b96db84d6435b3e3f5ce4d92d03ed3517d8
input=rou.rou.xml sha256=df1856f7806e88dafd46c2682365920d5b8f7a55c306a9878e0c37b0beaef2b5
input=config.sumocfg sha256=038e42253c8fefc13084998474d74d9bc2ef61372fde879c267881bb4fbf5304
