<nodes>
  <node id="A" x="0" y="0" type="priority"/>
  <node id="B" x="500" y="0" type="priority"/>
  <node id="C" x="900" y="0" type="priority"/>
</nodes>
