<routes>
  <vType id="car" accel="2.6" decel="4.5" sigma="0" length="5" minGap="2.5" maxSpeed="13.89" tau="1.0"/>
  <route id="r" edges="AB BC"/>
  <flow id="park" type="car" route="r" begin="0" end="1000" vehsPerHour="500" departLane="best" departSpeed="max">
    <stop parkingArea="pa" duration="99999"/>
  </flow>
  <flow id="thru" type="car" route="r" begin="0" end="1000" vehsPerHour="1400" departLane="best" departSpeed="max"/>
</routes>
