<?xml version="1.0" encoding="UTF-8"?>

<!-- generated on 2026-07-10 02:04:57 by Eclipse SUMO netconvert Version 1.20.0
<configuration xmlns:xsi="http://www.w3.org/2001/XMLSchema-instance" xsi:noNamespaceSchemaLocation="http://sumo.dlr.de/xsd/netconvertConfiguration.xsd">

    <input>
        <node-files value="nodes.nod.xml"/>
        <edge-files value="edges.edg.xml"/>
    </input>

    <output>
        <output-file value="net.net.xml"/>
    </output>

    <junctions>
        <no-turnarounds value="true"/>
        <junctions.corner-detail value="0"/>
    </junctions>

</configuration>
-->

<net version="1.20" limitTurnSpeed="5.50" xmlns:xsi="http://www.w3.org/2001/XMLSchema-instance" xsi:noNamespaceSchemaLocation="http://sumo.dlr.de/xsd/net_file.xsd">

    <location netOffset="0.00,0.00" convBoundary="0.00,0.00,1000.00,0.00" origBoundary="0.00,0.00,1000.00,0.00" projParameter="!"/>

    <edge id="AB" from="A" to="B" priority="1" spreadType="center" bidi="BA">
        <lane id="AB_0" index="0" allow="rail" speed="27.78" length="1000.00" shape="0.00,0.00 1000.00,0.00"/>
    </edge>
    <edge id="BA" from="B" to="A" priority="1" spreadType="center" bidi="AB">
        <lane id="BA_0" index="0" allow="rail" speed="27.78" length="1000.00" shape="1000.00,0.00 0.00,0.00"/>
    </edge>

    <junction id="A" type="dead_end" x="0.00" y="0.00" incLanes="BA_0" intLanes="" shape="0.00,1.60 0.00,-1.60 0.00,1.60 0.00,-1.60"/>
    <junction id="B" type="dead_end" x="1000.00" y="0.00" incLanes="AB_0" intLanes="" shape="1000.00,-1.60 1000.00,1.60 1000.00,-1.60 1000.00,1.60"/>

</net>
