<?xml version="1.0" encoding="UTF-8"?>
<nodes xmlns:xsi="http://www.w3.org/2001/XMLSchema-instance" xsi:noNamespaceSchemaLocation="http://sumo.dlr.de/xsd/nodes_file.xsd">
    <node id="A" x="0.00" y="0.00" type="priority"/>
    <node id="B" x="1000.00" y="0.00" type="priority"/>
</nodes>
