<?xml version="1.0" encoding="UTF-8"?>

<!-- generated on 2026-07-09 15:09:46 by Eclipse SUMO netgenerate Version 1.20.0
<configuration xmlns:xsi="http://www.w3.org/2001/XMLSchema-instance" xsi:noNamespaceSchemaLocation="http://sumo.dlr.de/xsd/netgenerateConfiguration.xsd">

    <random_network>
        <rand value="true"/>
        <rand.iterations value="120"/>
        <rand.max-distance value="260"/>
        <rand.min-distance value="90"/>
        <rand.neighbor-dist2 value="6"/>
    </random_network>

    <output>
        <output-file value="net.net.xml"/>
    </output>

    <building_defaults>
        <default.lanenumber value="2"/>
    </building_defaults>

    <tls_building>
        <tls.guess value="true"/>
    </tls_building>

    <junctions>
        <no-turnarounds value="true"/>
    </junctions>

    <random_number>
        <seed value="21"/>
    </random_number>

</configuration>
-->

<net version="1.20" junctionCornerDetail="5" limitTurnSpeed="5.50" xmlns:xsi="http://www.w3.org/2001/XMLSchema-instance" xsi:noNamespaceSchemaLocation="http://sumo.dlr.de/xsd/net_file.xsd">

    <location netOffset="849.60,1504.60" convBoundary="0.00,0.00,2077.51,2426.81" origBoundary="-849.60,-1504.60,1227.91,922.22" projParameter="!"/>

    <edge id=":1_0" function="internal">
        <lane id=":1_0_0" index="0" speed="7.57" length="12.13" shape="857.92,1512.40 855.32,1512.13 853.01,1513.14 850.99,1515.42 849.24,1518.97"/>
    </edge>
    <edge id=":1_1" function="internal">
        <lane id=":1_1_0" index="0" speed="13.89" length="22.62" shape="857.92,1512.40 851.92,1510.62 847.23,1509.80 842.45,1509.61 836.17,1509.74"/>
        <lane id=":1_1_1" index="1" speed="13.89" length="22.62" shape="858.92,1509.36 852.75,1507.56 847.69,1506.68 842.54,1506.43 836.09,1506.54"/>
    </edge>
    <edge id=":1_3" function="internal">
        <lane id=":1_3_0" index="0" speed="9.27" length="3.97" shape="858.92,1509.36 855.36,1507.59"/>
    </edge>
    <edge id=":1_16" function="internal">
        <lane id=":1_16_0" index="0" speed="9.27" length="15.31" shape="855.36,1507.59 854.19,1507.01 851.33,1503.71 850.35,1499.46 851.23,1494.26"/>
    </edge>
    <edge id=":1_4" function="internal">
        <lane id=":1_4_0" index="0" speed="6.53" length="9.03" shape="857.32,1496.21 856.91,1498.65 857.37,1500.64 858.71,1502.18 860.93,1503.28"/>
    </edge>
    <edge id=":1_5" function="internal">
        <lane id=":1_5_0" index="0" speed="13.89" length="24.07" shape="857.32,1496.21 849.24,1518.97"/>
        <lane id=":1_5_1" index="1" speed="13.89" length="24.07" shape="854.28,1495.24 846.26,1517.83"/>
    </edge>
    <edge id=":1_7" function="internal">
        <lane id=":1_7_0" index="0" speed="11.58" length="5.29" shape="854.28,1495.24 851.88,1499.95"/>
    </edge>
    <edge id=":1_17" function="internal">
        <lane id=":1_17_0" index="0" speed="11.58" length="17.67" shape="851.88,1499.95 851.83,1500.04 847.98,1503.53 842.74,1505.70 836.09,1506.54"/>
    </edge>
    <edge id=":1_8" function="internal">
        <lane id=":1_8_0" index="0" speed="9.44" length="15.02" shape="835.93,1500.14 840.50,1499.62 844.06,1498.30 846.62,1496.19 848.18,1493.29"/>
    </edge>
    <edge id=":1_9" function="internal">
        <lane id=":1_9_0" index="0" speed="13.89" length="24.81" shape="835.93,1500.14 842.71,1500.09 848.61,1500.44 854.42,1501.43 860.93,1503.28"/>
        <lane id=":1_9_1" index="1" speed="13.89" length="24.81" shape="836.01,1503.34 842.63,1503.26 848.15,1503.56 853.59,1504.50 859.92,1506.32"/>
    </edge>
    <edge id=":1_11" function="internal">
        <lane id=":1_11_0" index="0" speed="8.84" length="5.45" shape="836.01,1503.34 841.43,1503.96"/>
    </edge>
    <edge id=":1_18" function="internal">
        <lane id=":1_18_0" index="0" speed="8.84" length="17.34" shape="841.43,1503.96 842.63,1504.10 846.54,1506.76 847.75,1511.34 846.26,1517.83"/>
    </edge>
    <edge id=":1_12" function="internal">
        <lane id=":1_12_0" index="0" speed="5.83" length="9.13" shape="840.28,1515.55 840.88,1512.95 840.39,1511.11 838.82,1510.04 836.17,1509.74"/>
    </edge>
    <edge id=":1_13" function="internal">
        <lane id=":1_13_0" index="0" speed="13.89" length="23.71" shape="840.28,1515.55 848.18,1493.29"/>
        <lane id=":1_13_1" index="1" speed="13.89" length="23.71" shape="843.27,1516.69 851.23,1494.26"/>
    </edge>
    <edge id=":1_15" function="internal">
        <lane id=":1_15_0" index="0" speed="10.03" length="5.24" shape="843.27,1516.69 845.67,1512.03"/>
    </edge>
    <edge id=":1_19" function="internal">
        <lane id=":1_19_0" index="0" speed="10.03" length="16.82" shape="845.67,1512.03 846.33,1510.76 850.12,1507.05 854.66,1505.57 859.92,1506.32"/>
    </edge>
    <edge id=":1004_0" function="internal">
        <lane id=":1004_0_0" index="0" speed="13.89" length="25.76" shape="1333.96,1876.04 1334.53,1882.94 1334.16,1889.18 1332.98,1895.37 1331.13,1902.09"/>
        <lane id=":1004_0_1" index="1" speed="13.89" length="25.76" shape="1330.79,1876.51 1331.38,1883.19 1331.04,1888.96 1329.89,1894.67 1328.07,1901.18"/>
    </edge>
    <edge id=":1004_2" function="internal">
        <lane id=":1004_2_0" index="0" speed="10.20" length="5.01" shape="1330.79,1876.51 1330.55,1881.51"/>
    </edge>
    <edge id=":1004_9" function="internal">
        <lane id=":1004_9_0" index="0" speed="10.20" length="17.78" shape="1330.55,1881.51 1330.54,1881.73 1328.11,1885.91 1323.48,1889.05 1316.67,1891.15"/>
    </edge>
    <edge id=":1004_3" function="internal">
        <lane id=":1004_3_0" index="0" speed="7.81" length="12.93" shape="1315.41,1884.88 1319.67,1883.67 1322.60,1882.03 1324.20,1879.96 1324.46,1877.44"/>
        <lane id=":1004_3_1" index="1" speed="9.08" length="17.85" shape="1316.04,1888.01 1321.58,1886.36 1325.35,1883.97 1327.37,1880.84 1327.63,1876.98"/>
    </edge>
    <edge id=":1004_5" function="internal">
        <lane id=":1004_5_0" index="0" speed="8.81" length="23.88" shape="1316.04,1888.01 1323.14,1887.57 1327.51,1889.61 1329.15,1894.15 1328.07,1901.18"/>
    </edge>
    <edge id=":1004_6" function="internal">
        <lane id=":1004_6_0" index="0" speed="5.71" length="9.20" shape="1321.93,1899.36 1322.35,1896.65 1321.72,1894.91 1320.03,1894.12 1317.29,1894.29"/>
    </edge>
    <edge id=":1004_7" function="internal">
        <lane id=":1004_7_0" index="0" speed="13.89" length="23.02" shape="1321.93,1899.36 1323.73,1893.28 1324.81,1888.52 1325.08,1883.69 1324.46,1877.44"/>
        <lane id=":1004_7_1" index="1" speed="13.89" length="23.02" shape="1325.00,1900.27 1326.81,1893.98 1327.92,1888.74 1328.23,1883.44 1327.63,1876.98"/>
    </edge>
    <edge id=":1006_0" function="internal">
        <lane id=":1006_0_0" index="0" speed="13.89" length="23.31" shape="1436.68,1471.19 1423.01,1490.08"/>
        <lane id=":1006_0_1" index="1" speed="13.89" length="23.31" shape="1434.08,1469.31 1420.42,1488.20"/>
    </edge>
    <edge id=":1006_2" function="internal">
        <lane id=":1006_2_0" index="0" speed="8.81" length="5.51" shape="1434.08,1469.31 1430.30,1473.33"/>
    </edge>
    <edge id=":1006_8" function="internal">
        <lane id=":1006_8_0" index="0" speed="8.81" length="19.64" shape="1430.30,1473.33 1428.84,1474.88 1424.14,1476.35 1419.98,1473.72 1416.36,1466.98"/>
    </edge>
    <edge id=":1006_3" function="internal">
        <lane id=":1006_3_0" index="0" speed="5.61" length="9.31" shape="1422.33,1464.70 1423.68,1467.19 1425.22,1468.17 1426.96,1467.62 1428.90,1465.56"/>
    </edge>
    <edge id=":1006_4" function="internal">
        <lane id=":1006_4_0" index="0" speed="13.39" length="23.18" shape="1419.35,1465.84 1421.65,1473.09 1422.59,1479.24 1422.18,1484.27 1420.42,1488.20"/>
    </edge>
    <edge id=":1006_5" function="internal">
        <lane id=":1006_5_0" index="0" speed="11.48" length="16.90" shape="1415.24,1484.45 1416.19,1481.95 1416.19,1478.39 1415.25,1473.78 1413.37,1468.12"/>
    </edge>
    <edge id=":1006_6" function="internal">
        <lane id=":1006_6_0" index="0" speed="13.89" length="23.31" shape="1415.24,1484.45 1428.90,1465.56"/>
        <lane id=":1006_6_1" index="1" speed="13.89" length="23.31" shape="1417.83,1486.32 1431.49,1467.44"/>
    </edge>
    <edge id=":101_0" function="internal">
        <lane id=":101_0_0" index="0" speed="13.89" length="33.36" shape="786.00,2217.24 778.11,2214.36 771.84,2209.61 767.18,2202.99 764.14,2194.51"/>
        <lane id=":101_0_1" index="1" speed="13.89" length="29.77" shape="786.70,2214.11 779.70,2211.55 774.12,2207.30 769.97,2201.37 767.26,2193.77"/>
    </edge>
    <edge id=":101_2" function="internal">
        <lane id=":101_2_0" index="0" speed="8.99" length="8.73" shape="786.70,2214.11 780.01,2211.54 779.06,2210.31"/>
    </edge>
    <edge id=":101_9" function="internal">
        <lane id=":101_9_0" index="0" speed="8.99" length="16.43" shape="779.06,2210.31 777.03,2207.67 777.76,2202.49 782.21,2196.00"/>
    </edge>
    <edge id=":101_3" function="internal">
        <lane id=":101_3_0" index="0" speed="5.97" length="10.31" shape="787.01,2200.23 785.03,2203.02 784.56,2205.23 785.58,2206.84 788.10,2207.87"/>
        <lane id=":101_3_1" index="1" speed="7.63" length="17.73" shape="784.61,2198.11 781.40,2202.75 780.79,2206.45 782.79,2209.19 787.40,2210.99"/>
    </edge>
    <edge id=":101_5" function="internal">
        <lane id=":101_5_0" index="0" speed="8.82" length="25.66" shape="784.61,2198.11 778.70,2203.31 773.84,2204.31 770.02,2201.14 767.26,2193.77"/>
    </edge>
    <edge id=":101_6" function="internal">
        <lane id=":101_6_0" index="0" speed="5.58" length="9.36" shape="773.48,2192.30 774.49,2194.98 775.88,2196.14 777.66,2195.77 779.81,2193.88"/>
    </edge>
    <edge id=":101_7" function="internal">
        <lane id=":101_7_0" index="0" speed="12.23" length="22.60" shape="773.48,2192.30 775.55,2198.14 778.68,2202.68 782.86,2205.93 788.10,2207.87"/>
        <lane id=":101_7_1" index="1" speed="13.14" length="26.19" shape="770.37,2193.03 772.76,2199.76 776.40,2204.99 781.28,2208.74 787.40,2210.99"/>
    </edge>
    <edge id=":1013_0" function="internal">
        <lane id=":1013_0_0" index="0" speed="11.69" length="18.70" shape="429.66,2010.50 426.96,2011.07 423.77,2013.23 420.07,2017.00 415.88,2022.36"/>
    </edge>
    <edge id=":1013_1" function="internal">
        <lane id=":1013_1_0" index="0" speed="13.89" length="24.99" shape="429.66,2010.50 423.01,2010.11 417.34,2010.23 411.67,2010.69 405.02,2011.30"/>
        <lane id=":1013_1_1" index="1" speed="13.89" length="24.99" shape="429.96,2007.31 423.22,2006.92 417.36,2007.05 411.49,2007.50 404.75,2008.11"/>
    </edge>
    <edge id=":1013_3" function="internal">
        <lane id=":1013_3_0" index="0" speed="13.89" length="26.12" shape="404.21,2001.74 411.13,2001.12 417.38,2000.67 423.64,2000.55 430.55,2000.94"/>
        <lane id=":1013_3_1" index="1" speed="13.89" length="26.12" shape="404.48,2004.93 411.31,2004.31 417.37,2003.86 423.43,2003.74 430.26,2004.12"/>
    </edge>
    <edge id=":1013_5" function="internal">
        <lane id=":1013_5_0" index="0" speed="8.26" length="3.08" shape="404.48,2004.93 407.52,2005.38"/>
    </edge>
    <edge id=":1013_8" function="internal">
        <lane id=":1013_8_0" index="0" speed="8.26" length="20.32" shape="407.52,2005.38 410.85,2005.87 414.77,2009.37 415.75,2014.54 413.29,2020.48"/>
    </edge>
    <edge id=":1013_6" function="internal">
        <lane id=":1013_6_0" index="0" speed="5.51" length="9.54" shape="408.10,2016.74 409.54,2014.12 409.52,2012.35 408.01,2011.41 405.02,2011.30"/>
    </edge>
    <edge id=":1013_7" function="internal">
        <lane id=":1013_7_0" index="0" speed="13.53" length="25.25" shape="410.69,2018.61 416.05,2011.97 421.10,2007.35 425.83,2004.73 430.26,2004.12"/>
    </edge>
    <edge id=":1021_0" function="internal">
        <lane id=":1021_0_0" index="0" speed="13.89" length="20.01" shape="541.14,842.70 540.83,837.11 540.29,833.14 538.65,829.70 535.03,825.68"/>
        <lane id=":1021_0_1" index="1" speed="13.89" length="20.01" shape="544.33,842.47 543.93,836.24 543.23,831.76 541.30,827.85 537.23,823.36"/>
    </edge>
    <edge id=":1021_2" function="internal">
        <lane id=":1021_2_0" index="0" speed="13.89" length="29.49" shape="544.33,842.47 544.78,835.37 547.20,828.92 551.61,823.12 557.99,817.96"/>
    </edge>
    <edge id=":1021_3" function="internal">
        <lane id=":1021_3_0" index="0" speed="9.18" length="7.80" shape="544.33,842.47 544.93,835.72 545.56,834.90"/>
    </edge>
    <edge id=":1021_16" function="internal">
        <lane id=":1021_16_0" index="0" speed="9.18" length="17.38" shape="545.56,834.90 547.93,831.84 553.33,830.85 561.12,832.73"/>
    </edge>
    <edge id=":1021_4" function="internal">
        <lane id=":1021_4_0" index="0" speed="6.32" length="11.22" shape="558.91,838.73 555.14,837.74 552.53,837.95 551.05,839.37 550.71,842.00"/>
    </edge>
    <edge id=":1021_5" function="internal">
        <lane id=":1021_5_0" index="0" speed="13.89" length="26.78" shape="558.91,838.73 552.24,836.20 546.17,833.49 540.50,830.14 535.03,825.68"/>
        <lane id=":1021_5_1" index="1" speed="13.89" length="26.78" shape="560.01,835.73 553.52,833.30 547.82,830.83 542.53,827.71 537.23,823.36"/>
    </edge>
    <edge id=":1021_7" function="internal">
        <lane id=":1021_7_0" index="0" speed="8.83" length="5.57" shape="560.01,835.73 555.07,833.16"/>
    </edge>
    <edge id=":1021_17" function="internal">
        <lane id=":1021_17_0" index="0" speed="8.83" length="20.44" shape="555.07,833.16 552.90,832.04 550.19,827.85 551.89,823.15 557.99,817.96"/>
    </edge>
    <edge id=":1021_8" function="internal">
        <lane id=":1021_8_0" index="0" speed="5.56" length="9.39" shape="561.50,823.31 559.29,825.18 558.68,826.88 559.66,828.39 562.23,829.73"/>
    </edge>
    <edge id=":1021_9" function="internal">
        <lane id=":1021_9_0" index="0" speed="12.65" length="22.67" shape="561.50,823.31 556.48,827.33 553.00,831.78 551.08,836.68 550.71,842.00"/>
        <lane id=":1021_9_1" index="1" speed="13.55" length="26.08" shape="559.74,820.63 554.04,825.22 550.10,830.35 547.93,836.02 547.52,842.23"/>
    </edge>
    <edge id=":1021_11" function="internal">
        <lane id=":1021_11_0" index="0" speed="11.36" length="3.95" shape="559.74,820.63 556.28,822.53"/>
    </edge>
    <edge id=":1021_18" function="internal">
        <lane id=":1021_18_0" index="0" speed="11.36" length="20.49" shape="556.28,822.53 552.70,824.50 546.61,826.24 541.45,825.86 537.23,823.36"/>
    </edge>
    <edge id=":1021_12" function="internal">
        <lane id=":1021_12_0" index="0" speed="9.24" length="15.91" shape="541.64,818.72 543.99,819.87 547.20,819.67 551.28,818.15 556.23,815.28"/>
    </edge>
    <edge id=":1021_13" function="internal">
        <lane id=":1021_13_0" index="0" speed="13.89" length="24.22" shape="541.64,818.72 546.60,822.86 551.14,825.51 556.07,827.51 562.23,829.73"/>
        <lane id=":1021_13_1" index="1" speed="13.89" length="24.22" shape="539.44,821.04 544.56,825.28 549.48,828.17 554.79,830.41 561.12,832.73"/>
    </edge>
    <edge id=":1021_15" function="internal">
        <lane id=":1021_15_0" index="0" speed="13.89" length="4.32" shape="539.44,821.04 542.28,824.29"/>
    </edge>
    <edge id=":1021_19" function="internal">
        <lane id=":1021_19_0" index="0" speed="13.89" length="19.12" shape="542.28,824.29 543.66,825.85 545.92,830.48 546.97,835.68 547.52,842.23"/>
    </edge>
    <edge id=":1027_0" function="internal">
        <lane id=":1027_0_0" index="0" speed="8.98" length="16.89" shape="888.36,648.84 886.71,644.58 886.72,640.71 888.42,637.23 891.79,634.14"/>
        <lane id=":1027_0_1" index="1" speed="7.67" length="12.06" shape="891.16,647.28 889.97,644.24 889.98,641.47 891.19,638.98 893.60,636.78"/>
    </edge>
    <edge id=":1027_2" function="internal">
        <lane id=":1027_2_0" index="0" speed="3.91" length="2.41" shape="897.23,642.05 896.75,642.49 896.50,642.99 896.50,643.54 896.74,644.15"/>
        <lane id=":1027_2_1" index="1" speed="6.09" length="7.24" shape="895.41,639.41 893.97,640.74 893.24,642.23 893.24,643.89 893.95,645.71"/>
    </edge>
    <edge id=":1030_0" function="internal">
        <lane id=":1030_0_0" index="0" speed="13.89" length="19.26" shape="1506.90,1377.76 1502.31,1380.54 1499.70,1383.21 1497.61,1386.48 1494.58,1391.09"/>
        <lane id=":1030_0_1" index="1" speed="13.89" length="19.26" shape="1505.45,1374.90 1500.46,1377.90 1497.59,1380.74 1495.29,1384.24 1491.99,1389.21"/>
    </edge>
    <edge id=":1030_2" function="internal">
        <lane id=":1030_2_0" index="0" speed="13.89" length="4.28" shape="1505.45,1374.90 1501.48,1376.49"/>
    </edge>
    <edge id=":1030_9" function="internal">
        <lane id=":1030_9_0" index="0" speed="13.89" length="17.32" shape="1501.48,1376.49 1499.80,1377.16 1495.32,1377.61 1490.64,1377.00 1484.42,1376.06"/>
    </edge>
    <edge id=":1030_3" function="internal">
        <lane id=":1030_3_0" index="0" speed="13.89" length="18.85" shape="1485.14,1369.70 1490.42,1370.60 1494.18,1371.30 1497.77,1371.08 1502.55,1369.20"/>
        <lane id=":1030_3_1" index="1" speed="13.89" length="18.85" shape="1484.78,1372.88 1490.61,1373.83 1494.76,1374.51 1498.72,1374.17 1504.00,1372.05"/>
    </edge>
    <edge id=":1030_5" function="internal">
        <lane id=":1030_5_0" index="0" speed="8.81" length="24.22" shape="1484.78,1372.88 1491.82,1374.65 1495.36,1377.97 1495.42,1382.82 1491.99,1389.21"/>
    </edge>
    <edge id=":1030_6" function="internal">
        <lane id=":1030_6_0" index="0" speed="5.68" length="9.23" shape="1486.80,1385.46 1488.11,1383.03 1488.09,1381.18 1486.74,1379.92 1484.05,1379.24"/>
    </edge>
    <edge id=":1030_7" function="internal">
        <lane id=":1030_7_0" index="0" speed="13.89" length="22.24" shape="1486.80,1385.46 1490.48,1380.14 1493.53,1375.99 1497.15,1372.51 1502.55,1369.20"/>
        <lane id=":1030_7_1" index="1" speed="13.89" length="22.24" shape="1489.39,1387.34 1492.89,1382.17 1495.55,1378.36 1498.78,1375.21 1504.00,1372.05"/>
    </edge>
    <edge id=":1032_0" function="internal">
        <lane id=":1032_0_0" index="0" speed="5.55" length="9.43" shape="1379.74,1379.95 1378.37,1377.37 1376.85,1376.41 1375.18,1377.08 1373.36,1379.35"/>
    </edge>
    <edge id=":1032_1" function="internal">
        <lane id=":1032_1_0" index="0" speed="13.89" length="28.32" shape="1379.74,1379.95 1377.26,1372.99 1375.36,1366.04 1374.30,1358.97 1374.37,1351.67"/>
        <lane id=":1032_1_1" index="1" speed="13.89" length="28.32" shape="1382.73,1378.81 1380.28,1372.07 1378.45,1365.62 1377.46,1359.05 1377.55,1351.97"/>
    </edge>
    <edge id=":1032_3" function="internal">
        <lane id=":1032_3_0" index="0" speed="9.11" length="25.55" shape="1382.73,1378.81 1380.74,1370.91 1381.75,1365.54 1385.76,1362.71 1392.78,1362.41"/>
    </edge>
    <edge id=":1032_4" function="internal">
        <lane id=":1032_4_0" index="0" speed="6.19" length="11.02" shape="1392.05,1368.77 1389.37,1368.97 1387.92,1370.34 1387.70,1372.85 1388.71,1376.53"/>
    </edge>
    <edge id=":1032_5" function="internal">
        <lane id=":1032_5_0" index="0" speed="12.16" length="22.75" shape="1392.05,1368.77 1386.61,1368.95 1381.68,1370.77 1377.27,1374.24 1373.36,1379.35"/>
        <lane id=":1032_5_1" index="1" speed="13.07" length="26.39" shape="1392.41,1365.59 1386.02,1365.77 1380.26,1367.85 1375.13,1371.82 1370.64,1377.68"/>
    </edge>
    <edge id=":1032_7" function="internal">
        <lane id=":1032_7_0" index="0" speed="10.07" length="22.75" shape="1392.41,1365.59 1385.49,1364.06 1380.71,1361.28 1378.06,1357.25 1377.55,1351.97"/>
    </edge>
    <edge id=":1032_8" function="internal">
        <lane id=":1032_8_0" index="0" speed="7.63" length="12.65" shape="1383.92,1352.58 1384.30,1355.07 1385.96,1357.01 1388.91,1358.40 1393.14,1359.23"/>
    </edge>
    <edge id=":1032_9" function="internal">
        <lane id=":1032_9_0" index="0" speed="13.89" length="25.44" shape="1383.92,1352.58 1383.30,1359.38 1383.13,1365.35 1383.80,1371.21 1385.72,1377.67"/>
    </edge>
    <edge id=":1032_10" function="internal">
        <lane id=":1032_10_0" index="0" speed="13.89" length="28.32" shape="1383.92,1352.58 1382.61,1359.76 1380.25,1366.50 1377.09,1372.98 1373.36,1379.35"/>
        <lane id=":1032_10_1" index="1" speed="13.89" length="28.32" shape="1380.74,1352.27 1379.50,1359.24 1377.29,1365.51 1374.29,1371.51 1370.64,1377.68"/>
    </edge>
    <edge id=":1032_12" function="internal">
        <lane id=":1032_12_0" index="0" speed="13.89" length="25.45" shape="1365.18,1374.33 1368.69,1368.59 1371.38,1363.54 1373.27,1358.21 1374.37,1351.67"/>
        <lane id=":1032_12_1" index="1" speed="13.89" length="25.45" shape="1367.91,1376.00 1371.49,1370.05 1374.34,1364.53 1376.38,1358.73 1377.55,1351.97"/>
    </edge>
    <edge id=":1032_14" function="internal">
        <lane id=":1032_14_0" index="0" speed="13.89" length="5.82" shape="1367.91,1376.00 1371.46,1371.39"/>
    </edge>
    <edge id=":1032_15" function="internal">
        <lane id=":1032_15_0" index="0" speed="8.34" length="3.11" shape="1367.91,1376.00 1370.07,1373.77"/>
    </edge>
    <edge id=":1032_16" function="internal">
        <lane id=":1032_16_0" index="0" speed="13.89" length="24.21" shape="1371.46,1371.39 1373.00,1369.40 1378.84,1364.93 1385.43,1362.60 1392.78,1362.41"/>
    </edge>
    <edge id=":1032_17" function="internal">
        <lane id=":1032_17_0" index="0" speed="8.34" length="20.14" shape="1370.07,1373.77 1372.39,1371.39 1377.44,1370.18 1382.18,1372.30 1385.72,1377.67"/>
    </edge>
    <edge id=":107_0" function="internal">
        <lane id=":107_0_0" index="0" speed="6.65" length="9.54" shape="1170.14,2070.90 1167.68,2070.55 1165.67,2071.16 1164.11,2072.72 1163.00,2075.24"/>
    </edge>
    <edge id=":107_1" function="internal">
        <lane id=":107_1_0" index="0" speed="13.89" length="27.34" shape="1170.14,2070.90 1163.35,2068.97 1157.01,2067.43 1150.62,2066.09 1143.69,2064.75"/>
        <lane id=":107_1_1" index="1" speed="13.89" length="27.34" shape="1171.07,2067.84 1164.23,2065.89 1157.78,2064.32 1151.27,2062.96 1144.28,2061.61"/>
    </edge>
    <edge id=":107_3" function="internal">
        <lane id=":107_3_0" index="0" speed="13.89" length="4.12" shape="1171.07,2067.84 1167.36,2066.04"/>
    </edge>
    <edge id=":107_4" function="internal">
        <lane id=":107_4_0" index="0" speed="10.56" length="1.75" shape="1171.07,2067.84 1169.79,2066.64"/>
    </edge>
    <edge id=":107_25" function="internal">
        <lane id=":107_25_0" index="0" speed="13.89" length="25.55" shape="1167.36,2066.04 1165.83,2065.30 1160.76,2060.95 1155.84,2054.79 1151.09,2046.81"/>
    </edge>
    <edge id=":107_26" function="internal">
        <lane id=":107_26_0" index="0" speed="10.56" length="23.85" shape="1169.79,2066.64 1167.48,2064.49 1165.37,2058.26 1164.80,2050.93 1165.80,2044.24"/>
    </edge>
    <edge id=":107_5" function="internal">
        <lane id=":107_5_0" index="0" speed="8.67" length="16.92" shape="1171.91,2046.15 1170.35,2052.34 1169.99,2057.00 1170.86,2060.13 1172.94,2061.72"/>
    </edge>
    <edge id=":107_6" function="internal">
        <lane id=":107_6_0" index="0" speed="13.89" length="30.44" shape="1171.91,2046.15 1163.00,2075.24"/>
        <lane id=":107_6_1" index="1" speed="13.89" length="30.44" shape="1168.86,2045.20 1159.93,2074.33"/>
    </edge>
    <edge id=":107_8" function="internal">
        <lane id=":107_8_0" index="0" speed="12.49" length="5.45" shape="1168.86,2045.20 1166.60,2050.16"/>
    </edge>
    <edge id=":107_9" function="internal">
        <lane id=":107_9_0" index="0" speed="8.14" length="2.89" shape="1168.86,2045.20 1167.34,2047.66"/>
    </edge>
    <edge id=":107_27" function="internal">
        <lane id=":107_27_0" index="0" speed="12.49" length="27.43" shape="1166.60,2050.16 1164.99,2053.68 1159.61,2059.24 1152.70,2061.89 1144.28,2061.61"/>
    </edge>
    <edge id=":107_28" function="internal">
        <lane id=":107_28_0" index="0" speed="8.14" length="20.67" shape="1167.34,2047.66 1165.48,2050.67 1160.59,2052.84 1155.39,2051.59 1151.09,2046.81"/>
    </edge>
    <edge id=":107_10" function="internal">
        <lane id=":107_10_0" index="0" speed="5.48" length="9.73" shape="1156.75,2043.83 1158.50,2046.40 1160.08,2047.17 1161.50,2046.13 1162.75,2043.29"/>
    </edge>
    <edge id=":107_11" function="internal">
        <lane id=":107_11_0" index="0" speed="13.89" length="24.64" shape="1156.75,2043.83 1160.80,2050.73 1164.85,2056.01 1168.90,2059.67 1172.94,2061.72"/>
    </edge>
    <edge id=":107_12" function="internal">
        <lane id=":107_12_0" index="0" speed="13.89" length="32.67" shape="1156.75,2043.83 1160.09,2051.12 1162.68,2059.26 1163.87,2067.53 1163.00,2075.24"/>
        <lane id=":107_12_1" index="1" speed="13.89" length="30.31" shape="1153.92,2045.32 1157.22,2052.24 1159.73,2059.55 1160.84,2066.99 1159.93,2074.33"/>
    </edge>
    <edge id=":107_14" function="internal">
        <lane id=":107_14_0" index="0" speed="8.53" length="24.64" shape="1153.92,2045.32 1155.93,2052.07 1154.81,2057.69 1150.84,2061.20 1144.28,2061.61"/>
    </edge>
    <edge id=":107_15" function="internal">
        <lane id=":107_15_0" index="0" speed="5.90" length="10.93" shape="1145.48,2055.32 1148.34,2055.39 1149.76,2054.25 1149.73,2051.88 1148.25,2048.30"/>
    </edge>
    <edge id=":107_16" function="internal">
        <lane id=":107_16_0" index="0" speed="10.60" length="23.41" shape="1145.48,2055.32 1151.34,2055.48 1156.17,2053.52 1159.98,2049.46 1162.75,2043.29"/>
    </edge>
    <edge id=":107_17" function="internal">
        <lane id=":107_17_0" index="0" speed="13.89" length="28.04" shape="1145.48,2055.32 1152.57,2056.69 1159.31,2058.12 1166.00,2059.75 1172.94,2061.72"/>
        <lane id=":107_17_1" index="1" speed="13.89" length="28.04" shape="1144.88,2058.47 1151.92,2059.83 1158.54,2061.22 1165.12,2062.82 1172.01,2064.78"/>
    </edge>
    <edge id=":107_19" function="internal">
        <lane id=":107_19_0" index="0" speed="10.13" length="7.62" shape="1144.88,2058.47 1152.19,2060.60"/>
    </edge>
    <edge id=":107_29" function="internal">
        <lane id=":107_29_0" index="0" speed="10.13" length="17.58" shape="1152.19,2060.60 1152.83,2060.78 1157.99,2064.20 1160.36,2068.72 1159.93,2074.33"/>
    </edge>
    <edge id=":107_20" function="internal">
        <lane id=":107_20_0" index="0" speed="7.75" length="14.28" shape="1153.79,2072.51 1153.77,2069.95 1152.09,2067.80 1148.72,2066.07 1143.69,2064.75"/>
    </edge>
    <edge id=":107_21" function="internal">
        <lane id=":107_21_0" index="0" speed="13.89" length="25.62" shape="1153.79,2072.51 1154.78,2065.93 1153.83,2060.13 1151.48,2054.47 1148.25,2048.30"/>
    </edge>
    <edge id=":107_22" function="internal">
        <lane id=":107_22_0" index="0" speed="13.89" length="30.54" shape="1153.79,2072.51 1162.75,2043.29"/>
        <lane id=":107_22_1" index="1" speed="13.89" length="30.54" shape="1156.86,2073.42 1165.80,2044.24"/>
    </edge>
    <edge id=":107_24" function="internal">
        <lane id=":107_24_0" index="0" speed="9.36" length="5.48" shape="1156.86,2073.42 1159.11,2068.42"/>
    </edge>
    <edge id=":107_30" function="internal">
        <lane id=":107_30_0" index="0" speed="9.36" length="14.45" shape="1159.11,2068.42 1159.16,2068.31 1162.45,2065.17 1166.73,2063.99 1172.01,2064.78"/>
    </edge>
    <edge id=":113_0" function="internal">
        <lane id=":113_0_0" index="0" speed="13.89" length="17.09" shape="714.03,1983.39 712.75,1978.75 711.37,1975.71 709.41,1972.97 706.35,1969.18"/>
        <lane id=":113_0_1" index="1" speed="13.89" length="17.09" shape="717.14,1982.65 715.76,1977.60 714.29,1974.30 712.17,1971.31 708.86,1967.20"/>
    </edge>
    <edge id=":113_2" function="internal">
        <lane id=":113_2_0" index="0" speed="11.60" length="3.84" shape="717.14,1982.65 716.84,1978.82"/>
    </edge>
    <edge id=":113_9" function="internal">
        <lane id=":113_9_0" index="0" speed="11.60" length="14.84" shape="716.84,1978.82 716.81,1978.47 717.81,1974.32 720.15,1970.20 723.81,1966.12"/>
    </edge>
    <edge id=":113_3" function="internal">
        <lane id=":113_3_0" index="0" speed="9.37" length="11.96" shape="728.19,1970.79 725.66,1973.54 724.01,1976.18 723.24,1978.73 723.37,1981.17"/>
        <lane id=":113_3_1" index="1" speed="10.54" length="15.32" shape="726.00,1968.46 722.90,1971.87 720.91,1975.25 720.03,1978.60 720.26,1981.91"/>
    </edge>
    <edge id=":113_5" function="internal">
        <lane id=":113_5_0" index="0" speed="9.13" length="19.99" shape="726.00,1968.46 721.46,1971.63 717.09,1972.48 712.89,1971.00 708.86,1967.20"/>
    </edge>
    <edge id=":113_6" function="internal">
        <lane id=":113_6_0" index="0" speed="6.34" length="9.04" shape="713.87,1963.22 715.70,1964.94 717.60,1965.61 719.57,1965.22 721.63,1963.79"/>
    </edge>
    <edge id=":113_7" function="internal">
        <lane id=":113_7_0" index="0" speed="13.89" length="19.90" shape="713.87,1963.22 717.66,1967.96 720.09,1971.48 721.79,1975.36 723.37,1981.17"/>
        <lane id=":113_7_1" index="1" speed="13.89" length="19.90" shape="711.37,1965.21 714.93,1969.65 717.20,1972.89 718.77,1976.46 720.26,1981.91"/>
    </edge>
    <edge id=":1146_0" function="internal">
        <lane id=":1146_0_0" index="0" speed="7.33" length="6.88" shape="748.87,704.47 747.10,703.82 745.41,703.64 743.82,703.91 742.31,704.64"/>
        <lane id=":1146_0_1" index="1" speed="8.80" length="10.17" shape="750.26,701.58 747.67,700.66 745.20,700.41 742.82,700.85 740.55,701.97"/>
    </edge>
    <edge id=":1146_2" function="internal">
        <lane id=":1146_2_0" index="0" speed="9.50" length="13.88" shape="750.26,701.58 747.20,699.62 745.04,697.11 743.79,694.05 743.45,690.44"/>
    </edge>
    <edge id=":1146_3" function="internal">