<?xml version="1.0" encoding="UTF-8"?>

<!-- generated on 2026-07-09 15:09:47 by Eclipse SUMO duarouter Version 1.20.0
<configuration xmlns:xsi="http://www.w3.org/2001/XMLSchema-instance" xsi:noNamespaceSchemaLocation="http://sumo.dlr.de/xsd/duarouterConfiguration.xsd">

    <input>
        <net-file value="net.net.xml"/>
        <route-files value="trips.xml"/>
    </input>

    <output>
        <output-file value="rou.rou.xml"/>
        <named-routes value="true"/>
    </output>

    <report>
        <ignore-errors value="true"/>
    </report>

    <random_number>
        <seed value="21"/>
    </random_number>

</configuration>
-->

<routes xmlns:xsi="http://www.w3.org/2001/XMLSchema-instance" xsi:noNamespaceSchemaLocation="http://sumo.dlr.de/xsd/routes_file.xsd">
    <route id="r0" edges="-1480 -1265 -1156 -1031 -1007 -886 -606 -382 353 376 541 1022 1143 2282"/>
    <vehicle id="0" depart="0.00" route="r0"/>
    <route id="r1" edges="-2454 2452 -1427 -1245 -1149 1143 -718 -429 -318 -302 -270 -25 26 40 164 -137 163"/>
    <vehicle id="1" depart="0.80" route="r1"/>
    <route id="r2" edges="-1508 -1286 -1162 -1033 -1007 1005 -1012 -164 -40 -26 25 270 302 336 2388 2445"/>
    <vehicle id="2" depart="1.60" route="r2"/>
    <route id="r3" edges="1029 -143 137 -164 -40 -26 25 270 302 318 429 718 2278 -1628 1630"/>
    <vehicle id="3" depart="2.40" route="r3"/>
    <route id="r4" edges="-24 -9 3 272 382 606 886 1007 1033 1162"/>
    <vehicle id="4" depart="3.20" route="r4"/>
    <route id="r5" edges="-1007 1005 -1012 -137 143 -1029 -1005 1007 1031 1156 1265 1480"/>
    <vehicle id="5" depart="4.00" route="r5"/>
    <route id="r6" edges="-2445 -2388 -336 318 429 718 2278 -1628 -1439"/>
    <vehicle id="6" depart="4.80" route="r6"/>
    <route id="r7" edges="-997 -726 768 998 -541 -376 -353 382 606 886 1007 1031 1152"/>
    <vehicle id="7" depart="5.60" route="r7"/>
    <route id="r8" edges="-1517 -1229 -1014 -994 -426 -372 -336 318 429 718 2278 -1628 -1439 -1255"/>
    <vehicle id="8" depart="6.40" route="r8"/>
    <route id="r9" edges="-1218 1162 1274 1488 1815 -1967 -1461 1457"/>
    <vehicle id="9" depart="7.20" route="r9"/>
    <route id="r10" edges="374 -280 272 382 606 886 1007 1031 1156 1265 1480"/>
    <vehicle id="11" depart="8.80" route="r10"/>
    <route id="r11" edges="-1480 -1265 -1156 -1031 -1007 1005 -1012 -164 -40 -26 25 270 302 336 2388 2451"/>
    <vehicle id="12" depart="9.60" route="r11"/>
    <route id="r12" edges="-1457 -1259 -1151 -1028 -557 541 -998 -768 -429 -318 336 372"/>
    <vehicle id="13" depart="10.40" route="r12"/>
    <route id="r13" edges="-1711 -1488 -1274 -1162 -1033 -1007 1005 -1012 -137 163"/>
    <vehicle id="14" depart="11.20" route="r13"/>
    <route id="r14" edges="-1484 -1265 -1156 -1031 -1007 1005 -1012 -124"/>
    <vehicle id="15" depart="12.00" route="r14"/>
    <route id="r15" edges="1441 2259 -2253 -1427 -1245 -1149 -1022 -541 -376 -353 382 606 886 1007 1033 1162"/>
    <vehicle id="16" depart="12.80" route="r15"/>
    <route id="r16" edges="-768 -429 -318 -302 -270 -25 26 40 164 1012 -1005 1007"/>
    <vehicle id="17" depart="13.60" route="r16"/>
    <route id="r17" edges="557 -874 -543 541 -998 -768 -429 -318 336"/>
    <vehicle id="18" depart="14.40" route="r17"/>
    <route id="r18" edges="-435 -371 2388 2441"/>
    <vehicle id="19" depart="15.20" route="r18"/>
    <route id="r19" edges="-2445 -2388 -336 318 429 718 -1143 1149 1245 1427 2253 2406"/>
    <vehicle id="20" depart="16.00" route="r19"/>
    <route id="r20" edges="-1457 1461 1967 -1815 -1488 -1274 -1162 -1033 -1007 1005 -1012 -137 163"/>
    <vehicle id="21" depart="16.80" route="r20"/>
    <route id="r21" edges="1162 1274 1488 1815 -1967 -1461 -1259 -1151 -1028 -557 541 -998 -768 -429 -996"/>
    <vehicle id="22" depart="17.60" route="r21"/>
    <route id="r22" edges="-2262 -2032 -1443 1461 1967 1996 -1992 -1708 -1474 1484"/>
    <vehicle id="23" depart="18.40" route="r22"/>
    <route id="r23" edges="994 1014 1223 1408 1515 1930 2016 -1952 -1515 -1408 -1223 -1014 -994 -426 -367 -348 -28 26 40 164 1012 -1005 1007 1031 1156 1265 1484"/>
    <vehicle id="24" depart="19.20" route="r23"/>
    <route id="r24" edges="-365 -348 -110 -84 96"/>
    <vehicle id="25" depart="20.00" route="r24"/>
    <route id="r25" edges="-2282 -718 -429 -318 -302 -270 -25 26 40 164 -137 163"/>
    <vehicle id="26" depart="20.80" route="r25"/>
    <route id="r26" edges="-1508 -1286 1266 1463 1708 1986"/>
    <vehicle id="27" depart="21.60" route="r26"/>
    <route id="r27" edges="-2441 -2388 -336 318 429 768 998 -541 557 1028 1151 1259 1461 1967 1996 -1992 1986"/>
    <vehicle id="28" depart="22.40" route="r27"/>
    <route id="r28" edges="-1484 1474 1708 1992 -1996 -1967 -1461 -1259 1257 -1415 -1237 -1147 -1022 -541"/>
    <vehicle id="29" depart="23.20" route="r28"/>
    <route id="r29" edges="-1715 1815 -1967 -1461 -1259 -1151 -1028 -557 541 -998 -768 -429 -318 336 371"/>
    <vehicle id="30" depart="24.00" route="r29"/>
    <route id="r30" edges="-1630 -1439 -1255 1245 -1414 1415 -1257 1259 1461 2035 -2012"/>
    <vehicle id="31" depart="24.80" route="r30"/>
    <route id="r31" edges="-1257 -1151 -1028 -557 541 -998 -768 -429 -318 336 2388 2451"/>
    <vehicle id="32" depart="25.60" route="r31"/>
    <route id="r32" edges="-718 768 998 -541 -376 -353 382 606 886 1007 1031 1156 1265 1484"/>
    <vehicle id="33" depart="26.40" route="r32"/>
    <route id="r33" edges="-306 300 -374 376 557 1028 1151 1259 1443 2032 2264"/>
    <vehicle id="34" depart="27.20" route="r33"/>
    <route id="r34" edges="2012 -2035 -1461 -1259 -1151 -1028 -557 541 -998 -768 -429 -318 336 371 435"/>
    <vehicle id="35" depart="28.00" route="r34"/>
    <route id="r35" edges="-1986 -1708 -1463 -1266 -1162 -1033 -1007 -886 -606 562 876"/>
    <vehicle id="36" depart="28.80" route="r35"/>
    <route id="r36" edges="426 994 1014 1223 1408 1515 1930 2016 -1952 -1515 -1408 -1223 -1014 -994 -426 -367 -348 -28 26 40 164 1012 -1005 1007 1033 1162 1266 1463 1708 1974"/>
    <vehicle id="37" depart="29.60" route="r36"/>
    <route id="r37" edges="1515 1930 2016 -1952 -1515 -1408 -1223 -1014 -994 -426 -367 -348 -110 -100 108 163"/>
    <vehicle id="38" depart="30.40" route="r37"/>
    <route id="r38" edges="-1974 -1708 -1463 -1266 -1162 1218"/>
    <vehicle id="39" depart="31.20" route="r38"/>
    <route id="r39" edges="1486 -1473 -1261 -1156 -1031 -1007 1005 -1012 -164 -40"/>
    <vehicle id="40" depart="32.00" route="r39"/>
    <route id="r40" edges="-1261 -1156 -1031 -1007 1005 -1012 -164 -40 -26 25 270 302 336 2388 2451"/>
    <vehicle id="41" depart="32.80" route="r40"/>
    <route id="r41" edges="1255 1439 1628 -2278 -718 -429 -318 336 372 -367 -360 -128"/>
    <vehicle id="42" depart="33.60" route="r41"/>
    <route id="r42" edges="-1519 -1229 -1014 -994 -426 -372 -336 318 429 718 -1143 1147 1237 1415"/>
    <vehicle id="43" depart="34.40" route="r42"/>
    <route id="r43" edges="-1992 -1708 -1463 1473 -1486 1488 1815 -1967 -1461 -1259 1257 -1415 -1237 -1147 -1022 -541"/>
    <vehicle id="44" depart="35.20" route="r43"/>
    <route id="r44" edges="-1261 1265 1474 1708 1992 -1996 -1967 -1461 1457"/>
    <vehicle id="45" depart="36.00" route="r44"/>
    <route id="r45" edges="2012 -2035 -1461 -1259 -1151 -1028 -557 541 1022 1143 -718 768"/>
    <vehicle id="46" depart="36.80" route="r45"/>
    <route id="r46" edges="-435 -427 -367 -348 -110 -100 108 163"/>
    <vehicle id="47" depart="37.60" route="r46"/>
    <route id="r47" edges="-1519 -1229 -1014 -994 -426 427 435"/>
    <vehicle id="48" depart="38.40" route="r47"/>
    <route id="r48" edges="-1152 -1031 -1007 1005 -1012 -164 -40 -26 28 348 367 426 994 1014"/>
    <vehicle id="49" depart="39.20" route="r48"/>
    <route id="r49" edges="1257 -1415 -1237 -1147 1143 -718 -429 -318 336 2388 2445"/>
    <vehicle id="50" depart="40.00" route="r49"/>
    <route id="r50" edges="1500 -1711 1815 1996 -1992 1986"/>
    <vehicle id="51" depart="40.80" route="r50"/>
    <route id="r51" edges="-2035 1967 1996 -1992 1974"/>
    <vehicle id="52" depart="41.60" route="r51"/>
    <route id="r52" edges="1286 1500 2012 -2035 -1461 -1259 1257 -1415 -1237 1243 1425"/>
    <vehicle id="53" depart="42.40" route="r52"/>
    <route id="r53" edges="-2435 -330 -302 -270 -25 26 40 164 1012 -1005 1007 1033 1162 1266"/>
    <vehicle id="54" depart="43.20" route="r53"/>
    <route id="r54" edges="-1147 -1022 -541 557 1028 1151 1259 1461 1967 1996 -1992 1974"/>
    <vehicle id="55" depart="44.00" route="r54"/>
    <route id="r55" edges="-2454 2452 -1427 -1245 -1149 1143 -718 -429 -318 -302 -270 -25 26"/>
    <vehicle id="56" depart="44.80" route="r55"/>
    <route id="r56" edges="-2445 -2388 -336 -302 -270 -25 26 40 164 1012 -1005 1007 1033 1218"/>
    <vehicle id="57" depart="45.60" route="r56"/>
    <route id="r57" edges="-1986 -1708 -1463 -1266 -1162 -1033 -1007 1005 -1012 -164 -40 -26 28 348 367 427 435"/>
    <vehicle id="58" depart="46.40" route="r57"/>
    <route id="r58" edges="-1425 -1243 1237 1415 -1257 1259 1461 2035 -2012 -1711"/>
    <vehicle id="59" depart="47.20" route="r58"/>
    <route id="r59" edges="-1149 1143 -718 -429 -318 336 372 426 994 1014 1229 1517"/>
    <vehicle id="60" depart="48.00" route="r59"/>
    <route id="r60" edges="-1457 1461 1967 -1815 -1488 -1274 -1162 -1033 -1007 1005 -1012 -137 149 -281 293"/>
    <vehicle id="61" depart="48.80" route="r60"/>
    <route id="r61" edges="-281 -136 128 360 367 -372 -336 -302 -270"/>
    <vehicle id="62" depart="49.60" route="r61"/>
    <route id="r62" edges="-2435 -997 -726 768 998 -541 557 1028 1151 1259 1457"/>
    <vehicle id="63" depart="50.40" route="r62"/>
    <route id="r63" edges="-2282 -1143 -1022 -541 -376 -353 382 606 886 1007 1031"/>
    <vehicle id="64" depart="51.20" route="r63"/>
    <route id="r64" edges="-1480 -1265 -1156 -1031 -1007 -886 -606 596 -607"/>
    <vehicle id="65" depart="52.00" route="r64"/>
    <route id="r65" edges="-1974 -1708 -1463 -1266 -1162 -1033 -1007 -886 -606 -382 -272 -3 9 24"/>
    <vehicle id="66" depart="52.80" route="r65"/>
    <route id="r66" edges="-2435 -330 -302 -270 -25 26 40 164 1012 -1005 1007 1033 1162 1266 -1261"/>
    <vehicle id="67" depart="53.60" route="r66"/>
    <route id="r67" edges="-365 -360 -128 136 293"/>
    <vehicle id="68" depart="54.40" route="r67"/>
    <route id="r68" edges="-607 -416 -272 -3 21 270 302 336 2388 2445"/>
    <vehicle id="69" depart="55.20" route="r68"/>
    <route id="r69" edges="-1245 -1149 1143 -718 -429 -318 336 2388 2441"/>
    <vehicle id="70" depart="56.00" route="r69"/>
    <route id="r70" edges="-1484 1474 1708 1992 -1996 -1967 -1461 -1259 1257 -1415 1414 1427 2253 2406"/>
    <vehicle id="71" depart="56.80" route="r70"/>
    <route id="r71" edges="-1519 -1229 -1014 -994 -426 -372 -336 318 429 718 2282"/>
    <vehicle id="72" depart="57.60" route="r71"/>
    <route id="r72" edges="-1974 1992 -1996 -1967 -1461 -1259 1257 -1415 -1237 1243 1425"/>
    <vehicle id="73" depart="58.40" route="r72"/>
    <route id="r73" edges="2016 -1952 -1515 -1408 -1223 -1014 -994 -426 -372 -336 318 429 718 -1143 1147 1243 1425"/>
    <vehicle id="74" depart="59.20" route="r73"/>
    <route id="r74" edges="-2394 -2253 -1427 -1414 1415 -1257 1259 1461 1967 -1815 1715"/>
    <vehicle id="75" depart="60.00" route="r74"/>
    <route id="r75" edges="367 -372 -336 318 429 768 998 -541 557 1028 1151 1259 1461 2035 -2012 -1711 1815 -1967"/>
    <vehicle id="76" depart="60.80" route="r75"/>
    <route id="r76" edges="-2451 -2388 -336 318 429 718 2278 -1628 1630"/>
    <vehicle id="77" depart="61.60" route="r76"/>
    <route id="r77" edges="-426 -372 -336 318 429 768 998 -541 543"/>
    <vehicle id="78" depart="62.40" route="r77"/>
    <route id="r78" edges="-2406 -2253 -1427 -1414 1415 -1257 1259 1461 1967 -1815 1715"/>
    <vehicle id="79" depart="63.20" route="r78"/>
    <route id="r79" edges="-1255 -1149 1143 -718 -429 -318 336 2388 2451"/>
    <vehicle id="80" depart="64.00" route="r79"/>
    <route id="r80" edges="596 -607 -560 606 886 1007 1031 1156 1265 1480"/>
    <vehicle id="81" depart="64.80" route="r80"/>
    <route id="r81" edges="-1425 -1243 1237 1415 -1257 1259 1461 1967 -1815 -1488 1486 -1473"/>
    <vehicle id="82" depart="65.60" route="r81"/>
    <route id="r82" edges="-1274 -1162 -1033 -1007 1005 -1012 -164 -40 -26 25 270 302 336 2388 2451"/>
    <vehicle id="83" depart="66.40" route="r82"/>
    <route id="r83" edges="-435 -427 426 994 1014 1229 1517"/>
    <vehicle id="84" depart="67.20" route="r83"/>
    <route id="r84" edges="-2452 -2408 -1435 -1245 -1149 1143 -718 -429 -318 336 372 -367 -360 -114"/>
    <vehicle id="85" depart="68.00" route="r84"/>
    <route id="r85" edges="-2454 2452 -1427 -1245 -1149 1143 -718 -429 -318 336 372 426 994 1014 1229 1517"/>
    <vehicle id="86" depart="68.80" route="r85"/>
    <route id="r86" edges="-2406 -2253 -1427 -1414 1415 -1257 1259 1461 1967 1996 -1992 -1708 -1474 1484"/>
    <vehicle id="87" depart="69.60" route="r86"/>
    <route id="r87" edges="-1986 -1708 -1463 -1266 -1162 -1033 -1007 1005 -1012 -164 -40 84 114"/>
    <vehicle id="88" depart="70.40" route="r87"/>
    <route id="r88" edges="-1218 -1033 -1007 1005 -1012 -164 -40 -26 28 348 367 426 994 1014 1229 1517"/>
    <vehicle id="89" depart="71.20" route="r88"/>
    <vehicle id="90" depart="72.00" route="r71"/>
    <route id="r89" edges="1143 2278 -1628 -1439 1441 2259 2406"/>
    <vehicle id="91" depart="72.80" route="r89"/>
    <route id="r90" edges="-2264 -2032 -1443 1461 1967 -1815 -1488 -1274 -1162 1218"/>
    <vehicle id="92" depart="73.60" route="r90"/>
    <route id="r91" edges="-1974 -1708 -1463 -1266 -1162 -1033 -1007 1005 -1012 -137 163"/>
    <vehicle id="93" depart="74.40" route="r91"/>
    <route id="r92" edges="-2454 2452 -1427 -1245 -1149 1143 -718 -429 -318 336 371 435"/>
    <vehicle id="94" depart="75.20" route="r92"/>
    <route id="r93" edges="-1415 -1237 -1147 1143 -718 -429 -318 -302 -270 -25 26 40 164 -137 163"/>
    <vehicle id="95" depart="76.00" route="r93"/>
    <route id="r94" edges="-2282 -1143 1149 1245 1427 2253 2406"/>
    <vehicle id="96" depart="76.80" route="r94"/>
    <route id="r95" edges="1815 -1967 -1461 -1259 -1151 -1028 -557 541 -998 -768 -429 -318 336 2388 2441"/>
    <vehicle id="97" depart="77.60" route="r95"/>
    <route id="r96" edges="-2454 2452 -1427 -1245 -1149 1143 -718 -429 -318 336 2388 2441"/>
    <vehicle id="98" depart="78.40" route="r96"/>
    <route id="r97" edges="-293 -136 128 360 -348 -28 -13 3 280"/>
    <vehicle id="99" depart="79.20" route="r97"/>
    <route id="r98" edges="-365 367 -372 -336 318 429 718 2278"/>
    <vehicle id="100" depart="80.00" route="r98"/>
    <route id="r99" edges="-1517 -1229 -1014 -994 -426 -367 365"/>
    <vehicle id="101" depart="80.80" route="r99"/>
    <route id="r100" edges="1156 1261 -1266 -1162 -1033 -1007 1005 -1012 -164 -40 -26 28 348 367 427 435"/>
    <vehicle id="102" depart="81.60" route="r100"/>
    <route id="r101" edges="876 -607 -416 -272 -3 13 28 348 367 426 994 1014 1223 1408 1515 1930 2016 -1952 -1515 -1408 -1223 -1014"/>
    <vehicle id="103" depart="82.40" route="r101"/>
    <route id="r102" edges="-1630 -1439 -1255 -1149 1147 1243 1425"/>
    <vehicle id="104" depart="83.20" route="r102"/>
    <route id="r103" edges="-1974 -1708 -1463 -1266 -1162 -1033 -1007 1005 -1012 -164 -40 -26 28 348 367 -372 -336"/>
    <vehicle id="105" depart="84.00" route="r103"/>
    <route id="r104" edges="-2441 -2388 -336 -302 -270 -25 26 40 164 1012 -1005 1007 1033 1162 1286 -1485"/>
    <vehicle id="106" depart="84.80" route="r104"/>
    <route id="r105" edges="-1630 1628 -2278 -718 -429 -318 336 371 435"/>
    <vehicle id="107" depart="85.60" route="r105"/>
    <route id="r106" edges="-435 -427 426 994 1014 1229 1519"/>
    <vehicle id="108" depart="86.40" route="r106"/>
    <route id="r107" edges="-1425 -1243 -1147 1143 -718 -429 -318 336 371 435"/>
    <vehicle id="109" depart="87.20" route="r107"/>
    <route id="r108" edges="-1696 -1439 -1255 1245 -1414 1415 -1257 1259 1443 2032 2262"/>
    <vehicle id="110" depart="88.00" route="r108"/>
    <route id="r109" edges="-300 302 336 372 426 994 1014 1229"/>
    <vehicle id="111" depart="88.80" route="r109"/>
    <route id="r110" edges="372 -367 -348 -28 -13 3 272 353 376 557 1028 1151 1259 1443"/>
    <vehicle id="112" depart="89.60" route="r110"/>
    <route id="r111" edges="-1519 -1229 -1014 -994 -426 -372 -336 318 429 718 -1143 1149 1245 1427 -2452 2454"/>
    <vehicle id="113" depart="90.40" route="r111"/>
    <route id="r112" edges="-1480 1474 1708 1992 -1996 -1967 -1461 1443 2032 2264"/>
    <vehicle id="114" depart="91.20" route="r112"/>
    <route id="r113" edges="-1500 -1286 1266 1463 1708 1974"/>
    <vehicle id="115" depart="92.00" route="r113"/>
    <route id="r114" edges="-163 137 1012 -1005 1007 1031 1156 1265 1484"/>
    <vehicle id="116" depart="92.80" route="r114"/>
    <route id="r115" edges="336 372 426 994 1014 1229 1519"/>
    <vehicle id="117" depart="93.60" route="r115"/>
    <route id="r116" edges="-2262 -2032 -1443 1461 1967 1996 -1992 1986"/>
    <vehicle id="118" depart="94.40" route="r116"/>
    <route id="r117" edges="-163 137 1012 -1005 -886 -606 560 -558"/>
    <vehicle id="119" depart="95.20" route="r117"/>
    <route id="r118" edges="-1974 1992 -1996 -1967 -1461 -1259 -1151 -1028 -557 543 874 1028 1151 1259"/>
    <vehicle id="120" depart="96.00" route="r118"/>
    <route id="r119" edges="-1484 -1265 -1156 -1031 -1007 1005 -1012 -164 -40 -26 28 348 367 427 435"/>
    <vehicle id="121" depart="96.80" route="r119"/>
    <route id="r120" edges="-1218 -1033 -1007 1005 -1012 -164 -40 -26 25 270 302 336 2388 2451"/>
    <vehicle id="122" depart="97.60" route="r120"/>
    <route id="r121" edges="-110 -84 -26 25 270 302 318 429 718 2278 -1628 1630"/>
    <vehicle id="123" depart="98.40" route="r121"/>
    <route id="r122" edges="-1218 1162 1266 1463 1708 1986"/>
    <vehicle id="124" depart="99.20" route="r122"/>
    <route id="r123" edges="-365 -348 -28 26 40 164 1012 -1005 1007 1033 1218"/>
    <vehicle id="125" depart="100.00" route="r123"/>
    <route id="r124" edges="-102 -36 -26 25 270 302 318 429 718 2278 -1628 1696"/>
    <vehicle id="126" depart="100.80" route="r124"/>
    <route id="r125" edges="-2262 -2032 -1443 -1259 -1151 -1028 -557 541 -998 -768 -429 -318 336"/>
    <vehicle id="127" depart="101.60" route="r125"/>
    <route id="r126" edges="-1952 -1515 -1408 -1223 -1014 -994 -426 -367 -348 -28 -13 3 280 -300"/>
    <vehicle id="128" depart="102.40" route="r126"/>
    <route id="r127" edges="-996 997 -330 336 2388 2451"/>
    <vehicle id="129" depart="103.20" route="r127"/>
    <route id="r128" edges="-2408 -1435 -1414 1415 -1257 1259 1461 1967 -1815 -1488 1486 -1473 -1266"/>
    <vehicle id="130" depart="104.00" route="r128"/>
    <route id="r129" edges="-1484 -1265 -1156 -1031 -1007 1005 -1012 -137 149"/>
    <vehicle id="131" depart="104.80" route="r129"/>
    <route id="r130" edges="-2435 -330 -302 -270 -25 28 -110 114"/>
    <vehicle id="132" depart="105.60" route="r130"/>
    <route id="r131" edges="1014 1223 1408 1515 1930 2016 -1952 -1515 -1408 -1223 -1014 -994 -426 -372 -336 318 429 718 -1143 1149 1245 1427 -2452 2454"/>
    <vehicle id="133" depart="106.40" route="r131"/>
    <route id="r132" edges="-108 -36 40 164 1012 -1005 1007 1033 1162 1266 1463 1708 1974"/>
    <vehicle id="134" depart="107.20" route="r132"/>
    <vehicle id="135" depart="108.00" route="r18"/>
    <route id="r133" edges="-1484 -1265 -1156 -1031 -1007 1005 -1012 -164 -40 -26 28 348 367 426 994 1014 1223 1408 1515 1930 2016 -1952 -1515 -1408"/>
    <vehicle id="136" depart="108.80" route="r133"/>
    <route id="r134" edges="114 -128 136 281 -149 137 1012 -1005 1007 1033 1162 1266 1463 1708 1986"/>
    <vehicle id="137" depart="109.60" route="r134"/>
    <route id="r135" edges="-2451 -2388 372 426 994 1014 1229 1519"/>
    <vehicle id="138" depart="110.40" route="r135"/>
    <route id="r136" edges="1012 -1005 1007 1033 1162 1274 1488 1815 -1967 -1461 1457"/>
    <vehicle id="139" depart="111.20" route="r136"/>
    <route id="r137" edges="-1628 -1439 -1255 -1149 -1022 -541 -376 -353 382 606 886 1007 1031 1156 1265 1480"/>
    <vehicle id="140" depart="112.00" route="r137"/>
    <route id="r138" edges="-1630 -1439 -1255 1245 -1414 1415 -1257 1259 1461 1967 -1815 1711 2012"/>
    <vehicle id="141" depart="112.80" route="r138"/>
    <route id="r139" edges="1815 -1967 -1461 -1259 1257 -1415 1414 1427 2253 -2259 -1441"/>
    <vehicle id="142" depart="113.60" route="r139"/>
    <route id="r140" edges="-1259 1257 -1415 1414 -1245 1255 1439 1630"/>
    <vehicle id="143" depart="114.40" route="r140"/>
    <route id="r141" edges="-1628 -1439 -1255 -1149 1143 -718 -429 -318 -302 -270 -25 26 40 164 -137"/>
    <vehicle id="144" depart="115.20" route="r141"/>
    <route id="r142" edges="-300 -270 -21 3 272 353 376 557 1028 1151 1259 1443 2032 2262"/>
    <vehicle id="145" depart="116.00" route="r142"/>
    <route id="r143" edges="-1480 1474 1708 1992 -1996 -1967 2035 -2012"/>
    <vehicle id="146" depart="116.80" route="r143"/>
    <route id="r144" edges="300 -374 376 541 1022 1149 1255 1439 1696"/>
    <vehicle id="147" depart="117.60" route="r144"/>
    <route id="r145" edges="-1986 1992 -1996 -1967 -1461 -1259 -1151 -1028 -557 541 1022 1143 2282"/>
    <vehicle id="148" depart="118.40" route="r145"/>
    <route id="r146" edges="-378 376 541 1022 1149 1255 1439 1696"/>
    <vehicle id="149" depart="119.20" route="r146"/>
    <route id="r147" edges="-13 3 272 353 376 541 1022 1149 1245 1427 -2452 2454"/>
    <vehicle id="150" depart="120.00" route="r147"/>
    <route id="r148" edges="-1508 1500 2012 -2035 -1461 -1259 1257 -1415 1414 -1245"/>
    <vehicle id="151" depart="120.80" route="r148"/>
    <route id="r149" edges="-1715 1815 -1967 -1461 -1259 1257 -1415 1414 -1245 1255 1439 1696"/>
    <vehicle id="152" depart="121.60" route="r149"/>
    <route id="r150" edges="-2454 2452 -1427 -1414 1415 -1257 -1151 -1028 -557"/>
    <vehicle id="153" depart="122.40" route="r150"/>
    <route id="r151" edges="-365 -348 -110 -100 108 163"/>
    <vehicle id="154" depart="123.20" route="r151"/>
    <route id="r152" edges="-1480 -1265 -1156 -1031 -1007 1005 -1012 -164 -40 -26 25"/>
    <vehicle id="155" depart="124.00" route="r152"/>
    <route id="r153" edges="1028 1151 1257 -1415 -1237 -1147 1143 -718 -429 -318 336 372 -367 365"/>
    <vehicle id="156" depart="124.80" route="r153"/>
    <route id="r154" edges="-3 13 26 40 164 1012 1029"/>
    <vehicle id="157" depart="125.60" route="r154"/>
    <route id="r155" edges="-726 -429 -318 336 372 -367 365"/>
    <vehicle id="158" depart="126.40" route="r155"/>
    <route id="r156" edges="-2435 -330 336 372 -367 365"/>
    <vehicle id="159" depart="127.20" route="r156"/>
    <route id="r157" edges="558 -560 606 886 1007 1031 1156 1265 1484"/>
    <vehicle id="160" depart="128.00" route="r157"/>
    <route id="r158" edges="348 -360 -114 110 -28 -13 3 272 416"/>
    <vehicle id="161" depart="128.80" route="r158"/>
    <route id="r159" edges="-997 -726 718 -1143 1147 1237 1415 -1257 -1151 -1028"/>
    <vehicle id="162" depart="129.60" route="r159"/>
    <route id="r160" edges="-1715 1815 1996 -1992 1986"/>
    <vehicle id="163" depart="130.40" route="r160"/>
    <vehicle id="164" depart="131.20" route="r144"/>
    <route id="r161" edges="1500 -1711 -1488 -1274 -1162 -1033 -1007 1005"/>
    <vehicle id="165" depart="132.00" route="r161"/>
    <route id="r162" edges="997 -330 318 429 768 998 -541 557 1028 1151 1259 1461 1967 -1815 1715"/>
    <vehicle id="166" depart="132.80" route="r162"/>
    <route id="r163" edges="-607 -416 -272 -3 21 270 302 330 2435"/>
    <vehicle id="167" depart="133.60" route="r163"/>
    <route id="r164" edges="1515 1930 2016 -1952 -1515 -1408 -1223 -1014 -994 -426 -367 -348 -28 26 40 164 1012 -1005 1007 1031 1156 1265 1480"/>
    <vehicle id="168" depart="134.40" route="r164"/>
    <route id="r165" edges="-1408 -1223 -1014 -994 -426 -367 -348 -28 26 40 164 1012 -1005 1007 1033 1162 1286 1508"/>
    <vehicle id="169" depart="135.20" route="r165"/>
    <route id="r166" edges="-1484 1474 1708 1992 -1996 -1967 -1461 -1259 1257 -1415 1414 -1245 1255 1439 1696"/>
    <vehicle id="170" depart="136.00" route="r166"/>
    <route id="r167" edges="110 -28 26 40 164 1012 -1005 1007 1031 1156 1265 1480"/>
    <vehicle id="171" depart="136.80" route="r167"/>
    <route id="r168" edges="-1457 -1259 -1151"/>
    <vehicle id="172" depart="137.60" route="r168"/>
    <route id="r169" edges="-2016 -1930 -1515 -1408 -1223 -1014 -994 -426 -367 -348 -28 26 40 164 1012 -1005 1007 1033 1162 1266 1463 1708 1974"/>
    <vehicle id="173" depart="138.40" route="r169"/>
    <route id="r170" edges="-1151 -1028 -557 543 874 1028 1151 1259 1443 2032 2264"/>
    <vehicle id="174" depart="139.20" route="r170"/>
    <route id="r171" edges="281 -149 137 -164 -40 -26 25 270 302 318 429 718 2278 -1628 1696"/>
    <vehicle id="176" depart="140.80" route="r171"/>
    <route id="r172" edges="1967 -1815 1711 2012 -2035 -1461 -1259 1257 -1415 1414 -1245 1255 1439 1630"/>
    <vehicle id="177" depart="141.60" route="r172"/>
    <route id="r173" edges="-1457 1461 1967 -1815 -1488 -1274 -1162 1218"/>
    <vehicle id="178" depart="142.40" route="r173"/>
    <route id="r174" edges="-562 -382 -272 -3 21 270 302 330 2435"/>
    <vehicle id="179" depart="143.20" route="r174"/>
    <route id="r175" edges="-2253 -1427 -1414 1415 -1257 1259 1461 1967 1996 -1992 -1708 -1474 1484"/>
    <vehicle id="180" depart="144.00" route="r175"/>
    <route id="r176" edges="-2282 -1143 1147 1243"/>
    <vehicle id="181" depart="144.80" route="r176"/>
    <route id="r177" edges="-2435 -330 336 372 426 994 1014 1229 1519"/>
    <vehicle id="182" depart="145.60" route="r177"/>
    <vehicle id="183" depart="146.40" route="r120"/>
    <route id="r178" edges="-429 -996 -726 718 -1143 1149 1245 1427 2253 2406"/>
    <vehicle id="184" depart="147.20" route="r178"/>
    <route id="r179" edges="96 124 1012 -1005 1007 1031 1156 1265 1484"/>
    <vehicle id="185" depart="148.00" route="r179"/>
    <route id="r180" edges="-1974 -1708 -1463 -1266 -1162 -1033 -1007"/>
    <vehicle id="186" depart="148.80" route="r180"/>
    <route id="r181" edges="-293 281 -149 137 1012 -1005 1007 1033 1162 1266 1463 1708 1974"/>
    <vehicle id="187" depart="149.60" route="r181"/>
    <route id="r182" edges="-1488 -1274 -1162 -1033 -1007 -886 -606 -382 353 376 541 1022 1143"/>
    <vehicle id="188" depart="150.40" route="r182"/>
    <route id="r183" edges="-2282 -718 -429 -318 -302 -270 -25 -13"/>
    <vehicle id="189" depart="151.20" route="r183"/>
    <route id="r184" edges="-1952 -1515 -1408 -1223 -1014 -994 -426 -372 -336 318 429 718 -1143 1149 1245 1435 2408 2452"/>
    <vehicle id="190" depart="152.00" route="r184"/>
    <route id="r185" edges="-2282 -718 -429 -318 336 372 426 994 1014 1229 1519"/>
    <vehicle id="191" depart="152.80" route="r185"/>
    <route id="r186" edges="-1974 -1708 -1463 -1266 -1162 -1033 -1007 1005 -1012 -164 -40 -26 28 348 367 426 994 1014 1223 1408 1515 1930 2016"/>
    <vehicle id="192" depart="153.60" route="r186"/>
    <route id="r187" edges="-2451 -2388 -336 318 429 718 2282"/>
    <vehicle id="193" depart="154.40" route="r187"/>
    <route id="r188" edges="1441 2259 -2253 -1427 -1245 -1149 1143 -718 726 997 2435"/>
    <vehicle id="194" depart="155.20" route="r188"/>
    <vehicle id="195" depart="156.00" route="r38"/>
    <route id="r189" edges="-874 -543 541 -998 -768 -429 -318 336 2388 2445"/>
    <vehicle id="196" depart="156.80" route="r189"/>
    <route id="r190" edges="281 -149 -108 100 110 348 367 426 994 1014 1223 1408 1515 1930 2016 -1952 -1515 -1408 -1223 -1014 -994"/>
    <vehicle id="197" depart="157.60" route="r190"/>
    <route id="r191" edges="128 360 367 -372 -336 316"/>
    <vehicle id="198" depart="158.40" route="r191"/>
    <route id="r192" edges="-1286 1274 1488 1815 -1967 -1461 -1259 1257 -1415 -1237 1243 1425"/>
    <vehicle id="199" depart="159.20" route="r192"/>
    <route id="r193" edges="-2454 2452 -1427 -1245 -1149 1143 -718 -429 -318 336 372 -367 -348"/>
    <vehicle id="200" depart="160.00" route="r193"/>
    <route id="r194" edges="1237 1414 -1245 -1149 1143 -718 -429 -318 -302 -270 -25 26 96 124"/>
    <vehicle id="201" depart="160.80" route="r194"/>
    <route id="r195" edges="-302 306 -316 318 429 718 -1143 1147 1243 1425"/>
    <vehicle id="202" depart="161.60" route="r195"/>
    <route id="r196" edges="-1508 -1286 -1162 -1033 -1007 1005"/>
    <vehicle id="203" depart="162.40" route="r196"/>
    <vehicle id="204" depart="163.20" route="r94"/>
    <route id="r197" edges="-1508 1500 2012 -2035 -1461 -1259 -1151 -1028 -557 541 1022 1143 2282"/>
    <vehicle id="205" depart="164.00" route="r197"/>
    <vehicle id="206" depart="164.80" route="r108"/>
    <route id="r198" edges="-1930 -1515 -1408 -1223 -1014 -994 -426 -367 -348 -28 -13 3 272 416 607 -876"/>
    <vehicle id="207" depart="165.60" route="r198"/>
    <route id="r199" edges="-1461 -1259 -1151 -1028 -557 -376 -353 -272 -3 13 26 40 164 -137"/>
    <vehicle id="208" depart="166.40" route="r199"/>
    <route id="r200" edges="-360 -114 -84 40 164 1012 -1005 1007 1033 1162 1286 1508"/>
    <vehicle id="209" depart="167.20" route="r200"/>
    <vehicle id="210" depart="168.00" route="r60"/>
    <route id="r201" edges="-374 376 557 1028 1151 1259 1461 1967 1996 -1992 1974"/>
    <vehicle id="211" depart="168.80" route="r201"/>
    <route id="r202" edges="-2262 -2032 -1443 -1259 1257 -1415 1414 -1245 1255 1439 1630"/>
    <vehicle id="212" depart="169.60" route="r202"/>
    <route id="r203" edges="427 -371 -336 -302 -270 -25 26 40 164 1012 -1005 1007 1031 1156 1265 1480"/>
    <vehicle id="213" depart="170.40" route="r203"/>