<?xml version="1.0" encoding="UTF-8"?>

<!-- generated on 2026-07-09 15:40:38 by Eclipse SUMO netconvert Version 1.20.0
<configuration xmlns:xsi="http://www.w3.org/2001/XMLSchema-instance" xsi:noNamespaceSchemaLocation="http://sumo.dlr.de/xsd/netconvertConfiguration.xsd">

    <input>
        <node-files value="/tmp/claude-0/-home-user-Traffic/de3582b1-ade1-512c-9f46-b4ec24b8f796/scratchpad/mix2/work.nod.xml"/>
        <edge-files value="/tmp/claude-0/-home-user-Traffic/de3582b1-ade1-512c-9f46-b4ec24b8f796/scratchpad/mix2/work.edg.xml"/>
        <connection-files value="/tmp/claude-0/-home-user-Traffic/de3582b1-ade1-512c-9f46-b4ec24b8f796/scratchpad/mix2/rings.con.xml"/>
    </input>

    <output>
        <output-file value="/tmp/claude-0/-home-user-Traffic/de3582b1-ade1-512c-9f46-b4ec24b8f796/scratchpad/mix2/net.net.xml"/>
    </output>

    <processing>
        <roundabouts.guess value="true"/>
    </processing>

    <tls_building>
        <tls.guess value="true"/>
    </tls_building>

    <junctions>
        <no-turnarounds value="true"/>
    </junctions>

</configuration>
-->

<net version="1.20" junctionCornerDetail="5" limitTurnSpeed="5.50" xmlns:xsi="http://www.w3.org/2001/XMLSchema-instance" xsi:noNamespaceSchemaLocation="http://sumo.dlr.de/xsd/net_file.xsd">

    <location netOffset="2326.49,2795.82" convBoundary="0.00,0.00,3971.69,5043.02" origBoundary="-2326.49,-2795.82,1645.20,2247.20" projParameter="!"/>

    <edge id=":1_0" function="internal">
        <lane id=":1_0_0" index="0" speed="13.89" length="23.27" shape="2329.11,2808.35 2325.43,2803.16 2322.15,2799.42 2318.38,2796.16 2313.22,2792.43"/>
        <lane id=":1_0_1" index="1" speed="13.89" length="23.27" shape="2331.77,2806.56 2327.96,2801.25 2324.40,2797.21 2320.34,2793.66 2315.05,2789.80"/>
    </edge>
    <edge id=":1_2" function="internal">
        <lane id=":1_2_0" index="0" speed="13.89" length="4.14" shape="2331.77,2806.56 2329.96,2802.84"/>
    </edge>
    <edge id=":1_3" function="internal">
        <lane id=":1_3_0" index="0" speed="9.83" length="3.12" shape="2331.77,2806.56 2330.58,2803.68"/>
    </edge>
    <edge id=":1_16" function="internal">
        <lane id=":1_16_0" index="0" speed="13.89" length="24.66" shape="2329.96,2802.84 2329.02,2800.90 2327.80,2794.36 2328.12,2786.97 2329.97,2778.72"/>
    </edge>
    <edge id=":1_17" function="internal">
        <lane id=":1_17_0" index="0" speed="9.83" length="22.26" shape="2330.58,2803.68 2329.52,2801.08 2330.47,2796.13 2334.63,2791.70 2341.99,2787.79"/>
    </edge>
    <edge id=":1_4" function="internal">
        <lane id=":1_4_0" index="0" speed="7.34" length="13.61" shape="2344.40,2793.72 2339.95,2795.92 2337.25,2798.20 2336.29,2800.56 2337.08,2803.00"/>
    </edge>
    <edge id=":1_5" function="internal">
        <lane id=":1_5_0" index="0" speed="13.89" length="32.55" shape="2344.40,2793.72 2335.51,2796.46 2327.34,2797.16 2319.92,2795.82 2313.22,2792.43"/>
        <lane id=":1_5_1" index="1" speed="13.89" length="29.36" shape="2343.19,2790.76 2335.09,2793.28 2327.70,2793.96 2321.02,2792.80 2315.05,2789.80"/>
    </edge>
    <edge id=":1_7" function="internal">
        <lane id=":1_7_0" index="0" speed="8.30" length="23.31" shape="2343.19,2790.76 2336.84,2791.79 2332.06,2789.71 2329.53,2785.14 2329.97,2778.72"/>
    </edge>
    <edge id=":1_8" function="internal">
        <lane id=":1_8_0" index="0" speed="5.53" length="9.46" shape="2336.10,2780.56 2335.60,2783.46 2336.21,2785.14 2337.94,2785.60 2340.78,2784.83"/>
    </edge>
    <edge id=":1_9" function="internal">
        <lane id=":1_9_0" index="0" speed="13.89" length="23.16" shape="2336.10,2780.56 2334.53,2787.39 2334.17,2793.41 2335.02,2798.61 2337.08,2803.00"/>
        <lane id=":1_9_1" index="1" speed="13.89" length="25.98" shape="2333.03,2779.64 2331.32,2787.18 2330.99,2793.88 2332.02,2799.75 2334.43,2804.78"/>
    </edge>
    <edge id=":1_11" function="internal">
        <lane id=":1_11_0" index="0" speed="9.52" length="25.50" shape="2333.03,2779.64 2329.79,2787.31 2325.71,2791.56 2320.80,2792.39 2315.05,2789.80"/>
    </edge>
    <edge id=":1_12" function="internal">
        <lane id=":1_12_0" index="0" speed="6.89" length="12.71" shape="2318.71,2784.55 2321.13,2785.46 2323.30,2784.63 2325.22,2782.08 2326.90,2777.79"/>
    </edge>
    <edge id=":1_13" function="internal">
        <lane id=":1_13_0" index="0" speed="13.73" length="24.54" shape="2318.71,2784.55 2324.48,2787.76 2330.29,2789.37 2336.12,2789.38 2341.99,2787.79"/>
    </edge>
    <edge id=":1_14" function="internal">
        <lane id=":1_14_0" index="0" speed="13.89" length="25.63" shape="2318.71,2784.55 2324.26,2788.68 2328.88,2792.80 2333.01,2797.42 2337.08,2803.00"/>
        <lane id=":1_14_1" index="1" speed="13.89" length="25.63" shape="2316.88,2787.17 2322.30,2791.17 2326.64,2795.00 2330.49,2799.33 2334.43,2804.78"/>
    </edge>
    <edge id=":10023_0" function="internal">
        <lane id=":10023_0_0" index="0" speed="4.07" length="1.52" shape="231.12,3059.76 230.74,3059.69 230.37,3059.70 230.02,3059.82 229.68,3060.02"/>
        <lane id=":10023_0_1" index="1" speed="6.39" length="4.56" shape="232.06,3056.71 230.90,3056.49 229.80,3056.54 228.75,3056.87 227.74,3057.48"/>
    </edge>
    <edge id=":10023_2" function="internal">
        <lane id=":10023_2_0" index="0" speed="9.46" length="10.64" shape="223.86,3052.38 226.20,3050.97 228.66,3050.19 231.24,3050.07 233.93,3050.59"/>
        <lane id=":10023_2_1" index="1" speed="8.07" length="7.60" shape="225.80,3054.93 227.47,3053.91 229.22,3053.36 231.06,3053.28 232.99,3053.65"/>
    </edge>
    <edge id=":1003_0" function="internal">
        <lane id=":1003_0_0" index="0" speed="8.89" length="12.62" shape="2217.26,2512.48 2214.07,2509.91 2211.13,2508.39 2208.45,2507.91 2206.02,2508.48"/>
    </edge>
    <edge id=":1003_1" function="internal">
        <lane id=":1003_1_0" index="0" speed="13.89" length="33.40" shape="2217.26,2512.48 2212.71,2506.70 2210.04,2499.56 2209.26,2491.07 2210.36,2481.23"/>
        <lane id=":1003_1_1" index="1" speed="13.89" length="30.17" shape="2219.44,2510.14 2215.44,2505.00 2213.11,2498.56 2212.47,2490.85 2213.50,2481.84"/>
    </edge>
    <edge id=":1003_3" function="internal">
        <lane id=":1003_3_0" index="0" speed="9.96" length="11.62" shape="2219.44,2510.14 2215.38,2504.34 2215.74,2499.82"/>
    </edge>
    <edge id=":1003_15" function="internal">
        <lane id=":1003_15_0" index="0" speed="9.96" length="15.45" shape="2215.74,2499.82 2215.80,2499.07 2219.81,2494.10 2226.54,2489.23"/>
    </edge>
    <edge id=":1003_4" function="internal">
        <lane id=":1003_4_0" index="0" speed="7.40" length="14.35" shape="2229.94,2494.65 2225.58,2497.82 2223.11,2500.68 2222.51,2503.22 2223.80,2505.45"/>
    </edge>
    <edge id=":1003_5" function="internal">
        <lane id=":1003_5_0" index="0" speed="13.89" length="27.46" shape="2229.94,2494.65 2223.90,2498.45 2218.19,2501.95 2212.38,2505.26 2206.02,2508.48"/>
        <lane id=":1003_5_1" index="1" speed="13.89" length="27.46" shape="2228.24,2491.94 2222.25,2495.72 2216.66,2499.15 2210.96,2502.40 2204.65,2505.59"/>
    </edge>
    <edge id=":1003_7" function="internal">
        <lane id=":1003_7_0" index="0" speed="8.19" length="3.00" shape="2228.24,2491.94 2225.39,2492.88"/>
    </edge>
    <edge id=":1003_16" function="internal">
        <lane id=":1003_16_0" index="0" speed="8.19" length="20.50" shape="2225.39,2492.88 2222.13,2493.96 2217.01,2492.53 2213.82,2488.27 2213.50,2481.84"/>
    </edge>
    <edge id=":1003_8" function="internal">
        <lane id=":1003_8_0" index="0" speed="5.49" length="9.64" shape="2219.79,2483.06 2219.56,2486.11 2220.32,2487.70 2222.08,2487.84 2224.83,2486.52"/>
    </edge>
    <edge id=":1003_9" function="internal">
        <lane id=":1003_9_0" index="0" speed="13.84" length="25.57" shape="2219.79,2483.06 2218.49,2491.92 2218.36,2499.00 2219.40,2504.29 2221.62,2507.79"/>
    </edge>
    <edge id=":1003_10" function="internal">
        <lane id=":1003_10_0" index="0" speed="13.89" length="5.41" shape="2216.64,2482.45 2215.34,2487.70"/>
    </edge>
    <edge id=":1003_17" function="internal">
        <lane id=":1003_17_0" index="0" speed="13.89" length="21.44" shape="2215.34,2487.70 2214.49,2491.10 2211.78,2497.85 2208.50,2502.67 2204.65,2505.59"/>
    </edge>
    <edge id=":1003_11" function="internal">
        <lane id=":1003_11_0" index="0" speed="13.23" length="20.92" shape="2201.91,2499.81 2204.44,2497.70 2206.69,2493.90 2208.66,2488.41 2210.36,2481.23"/>
    </edge>
    <edge id=":1003_12" function="internal">
        <lane id=":1003_12_0" index="0" speed="13.89" length="26.71" shape="2201.91,2499.81 2208.11,2496.67 2213.58,2493.55 2218.95,2490.24 2224.83,2486.52"/>
        <lane id=":1003_12_1" index="1" speed="13.89" length="26.71" shape="2203.28,2502.70 2209.54,2499.54 2215.12,2496.35 2220.60,2492.98 2226.54,2489.23"/>
    </edge>
    <edge id=":1003_14" function="internal">
        <lane id=":1003_14_0" index="0" speed="11.14" length="3.61" shape="2203.28,2502.70 2206.76,2501.74"/>
    </edge>
    <edge id=":1003_18" function="internal">
        <lane id=":1003_18_0" index="0" speed="11.14" length="16.64" shape="2206.76,2501.74 2207.62,2501.50 2212.13,2501.95 2216.79,2504.05 2221.62,2507.79"/>
    </edge>
    <edge id=":10042_0" function="internal">
        <lane id=":10042_0_0" index="0" speed="6.30" length="9.84" shape="2538.56,2502.70 2537.28,2499.98 2535.62,2498.48 2533.61,2498.19 2531.22,2499.13"/>
        <lane id=":10042_0_1" index="1" speed="7.84" length="15.89" shape="2541.60,2501.69 2539.55,2497.44 2536.86,2495.13 2533.53,2494.78 2529.56,2496.39"/>
    </edge>
    <edge id=":10042_2" function="internal">
        <lane id=":10042_2_0" index="0" speed="8.87" length="22.25" shape="2541.60,2501.69 2540.45,2495.36 2541.82,2490.88 2545.70,2488.24 2552.09,2487.46"/>
    </edge>
    <edge id=":10042_3" function="internal">
        <lane id=":10042_3_0" index="0" speed="5.90" length="9.10" shape="2551.97,2493.86 2549.36,2494.18 2547.77,2495.26 2547.21,2497.09 2547.68,2499.69"/>
    </edge>
    <edge id=":10042_4" function="internal">
        <lane id=":10042_4_0" index="0" speed="13.89" length="22.74" shape="2551.97,2493.86 2545.71,2493.88 2541.06,2494.49 2536.67,2496.10 2531.22,2499.13"/>
        <lane id=":10042_4_1" index="1" speed="13.89" length="22.74" shape="2552.03,2490.66 2545.51,2490.75 2540.26,2491.52 2535.28,2493.29 2529.56,2496.39"/>
    </edge>
    <edge id=":10042_6" function="internal">
        <lane id=":10042_6_0" index="0" speed="13.89" length="26.24" shape="2526.26,2490.91 2532.52,2487.67 2538.67,2485.58 2545.09,2484.49 2552.15,2484.26"/>
        <lane id=":10042_6_1" index="1" speed="13.89" length="26.24" shape="2527.91,2493.65 2533.90,2490.48 2539.46,2488.55 2545.30,2487.62 2552.09,2487.46"/>
    </edge>
    <edge id=":10042_8" function="internal">
        <lane id=":10042_8_0" index="0" speed="9.12" length="6.00" shape="2527.91,2493.65 2533.46,2491.38"/>
    </edge>
    <edge id=":10042_9" function="internal">
        <lane id=":10042_9_0" index="0" speed="9.12" length="15.95" shape="2533.46,2491.38 2538.10,2491.79 2541.83,2494.90 2544.64,2500.69"/>
    </edge>
    <edge id=":10058_0" function="internal">
        <lane id=":10058_0_0" index="0" speed="4.13" length="1.36" shape="3718.87,3954.33 3718.58,3954.14 3718.27,3954.02 3717.94,3953.97 3717.59,3954.00"/>
        <lane id=":10058_0_1" index="1" speed="6.52" length="4.09" shape="3720.88,3951.84 3720.00,3951.26 3719.07,3950.90 3718.09,3950.76 3717.04,3950.84"/>
    </edge>
    <edge id=":10058_2" function="internal">
        <lane id=":10058_2_0" index="0" speed="9.66" length="9.54" shape="3715.95,3944.54 3718.39,3944.36 3720.69,3944.69 3722.86,3945.52 3724.90,3946.86"/>
        <lane id=":10058_2_1" index="1" speed="8.24" length="6.81" shape="3716.50,3947.69 3718.24,3947.56 3719.88,3947.80 3721.43,3948.39 3722.89,3949.35"/>
    </edge>
    <edge id=":10062_0" function="internal">
        <lane id=":10062_0_0" index="0" speed="7.40" length="17.70" shape="3487.95,4582.51 3483.96,4576.17 3480.68,4572.57 3478.11,4571.70 3476.26,4573.56"/>
    </edge>
    <edge id=":10062_1" function="internal">
        <lane id=":10062_1_0" index="0" speed="13.89" length="42.38" shape="3487.95,4582.51 3466.43,4546.11"/>
        <lane id=":10062_1_1" index="1" speed="13.89" length="42.38" shape="3490.74,4580.94 3469.12,4544.38"/>
    </edge>
    <edge id=":10062_3" function="internal">
        <lane id=":10062_3_0" index="0" speed="13.89" length="6.13" shape="3490.74,4580.94 3488.25,4575.33"/>
    </edge>
    <edge id=":10062_4" function="internal">
        <lane id=":10062_4_0" index="0" speed="9.04" length="4.23" shape="3490.74,4580.94 3489.23,4576.99"/>
    </edge>
    <edge id=":10062_25" function="internal">
        <lane id=":10062_25_0" index="0" speed="13.89" length="42.13" shape="3488.25,4575.33 3485.40,4568.94 3483.08,4557.23 3483.79,4545.80 3487.51,4534.67"/>
    </edge>
    <edge id=":10062_26" function="internal">
        <lane id=":10062_26_0" index="0" speed="9.04" length="24.97" shape="3489.23,4576.99 3487.58,4572.66 3487.45,4565.18 3490.70,4560.30 3497.68,4559.82"/>
    </edge>
    <edge id=":10062_5" function="internal">
        <lane id=":10062_5_0" index="0" speed="6.76" length="15.59" shape="3496.08,4566.01 3493.27,4566.01 3492.38,4567.98 3493.39,4571.91 3496.31,4577.79"/>
    </edge>
    <edge id=":10062_6" function="internal">
        <lane id=":10062_6_0" index="0" speed="10.86" length="23.30" shape="3496.08,4566.01 3489.38,4565.06 3483.84,4566.01 3479.47,4568.84 3476.26,4573.56"/>
    </edge>
    <edge id=":10062_7" function="internal">
        <lane id=":10062_7_0" index="0" speed="13.89" length="35.11" shape="3496.08,4566.01 3488.12,4563.02 3479.65,4558.28 3471.98,4552.42 3466.43,4546.11"/>
        <lane id=":10062_7_1" index="1" speed="13.89" length="35.11" shape="3496.88,4562.92 3489.21,4560.15 3481.39,4555.87 3474.37,4550.48 3469.12,4544.38"/>
    </edge>
    <edge id=":10062_9" function="internal">
        <lane id=":10062_9_0" index="0" speed="11.72" length="36.23" shape="3496.88,4562.92 3487.66,4558.85 3483.53,4552.83 3483.72,4544.79 3487.51,4534.67"/>
    </edge>
    <edge id=":10062_10" function="internal">
        <lane id=":10062_10_0" index="0" speed="9.56" length="23.72" shape="3493.29,4537.42 3490.76,4544.62 3490.78,4550.23 3493.36,4554.27 3498.48,4556.72"/>
    </edge>
    <edge id=":10062_11" function="internal">
        <lane id=":10062_11_0" index="0" speed="13.89" length="42.12" shape="3493.29,4537.42 3490.09,4547.06 3489.52,4557.01 3491.60,4567.25 3496.31,4577.79"/>
    </edge>
    <edge id=":10062_12" function="internal">
        <lane id=":10062_12_0" index="0" speed="13.89" length="39.97" shape="3493.29,4537.42 3476.26,4573.56"/>
        <lane id=":10062_12_1" index="1" speed="13.89" length="39.97" shape="3490.40,4536.04 3473.36,4572.22"/>
    </edge>
    <edge id=":10062_14" function="internal">
        <lane id=":10062_14_0" index="0" speed="9.52" length="6.54" shape="3490.40,4536.04 3486.99,4541.62"/>
    </edge>
    <edge id=":10062_27" function="internal">
        <lane id=":10062_27_0" index="0" speed="9.52" length="22.73" shape="3486.99,4541.62 3485.73,4543.68 3480.28,4548.52 3474.57,4549.20 3469.12,4544.38"/>
    </edge>
    <edge id=":10062_15" function="internal">
        <lane id=":10062_15_0" index="0" speed="7.08" length="15.51" shape="3474.51,4540.93 3476.53,4542.63 3478.89,4541.92 3481.59,4538.80 3484.62,4533.29"/>
    </edge>
    <edge id=":10062_16" function="internal">
        <lane id=":10062_16_0" index="0" speed="13.89" length="29.35" shape="3474.51,4540.93 3479.17,4546.60 3484.89,4551.04 3491.41,4554.38 3498.48,4556.72"/>
    </edge>
    <edge id=":10062_17" function="internal">
        <lane id=":10062_17_0" index="0" speed="13.89" length="42.73" shape="3474.51,4540.93 3496.31,4577.79"/>
        <lane id=":10062_17_1" index="1" speed="13.89" length="42.73" shape="3471.82,4542.66 3493.53,4579.36"/>
    </edge>
    <edge id=":10062_19" function="internal">
        <lane id=":10062_19_0" index="0" speed="13.89" length="7.81" shape="3471.82,4542.66 3475.23,4549.69"/>
    </edge>
    <edge id=":10062_28" function="internal">
        <lane id=":10062_28_0" index="0" speed="13.89" length="23.13" shape="3475.23,4549.69 3476.63,4556.95 3476.00,4564.46 3473.36,4572.22"/>
    </edge>
    <edge id=":10062_20" function="internal">
        <lane id=":10062_20_0" index="0" speed="13.64" length="24.50" shape="3467.55,4569.52 3469.66,4563.34 3470.18,4557.38 3469.10,4551.64 3466.43,4546.11"/>
    </edge>
    <edge id=":10062_21" function="internal">
        <lane id=":10062_21_0" index="0" speed="13.89" length="40.04" shape="3467.55,4569.52 3484.62,4533.29"/>
        <lane id=":10062_21_1" index="1" speed="13.89" length="40.04" shape="3470.46,4570.87 3487.51,4534.67"/>
    </edge>
    <edge id=":10062_23" function="internal">
        <lane id=":10062_23_0" index="0" speed="12.72" length="4.78" shape="3470.46,4570.87 3473.11,4566.90"/>
    </edge>
    <edge id=":10062_24" function="internal">
        <lane id=":10062_24_0" index="0" speed="9.73" length="2.50" shape="3470.46,4570.87 3472.15,4569.02"/>
    </edge>
    <edge id=":10062_29" function="internal">
        <lane id=":10062_29_0" index="0" speed="12.72" length="27.52" shape="3473.11,4566.90 3474.97,4564.12 3481.01,4560.03 3488.58,4558.59 3497.68,4559.82"/>
    </edge>
    <edge id=":10062_30" function="internal">
        <lane id=":10062_30_0" index="0" speed="9.73" length="29.21" shape="3472.15,4569.02 3475.54,4565.30 3481.63,4566.01 3487.90,4571.28 3493.53,4579.36"/>
    </edge>
    <edge id=":1007_0" function="internal">
        <lane id=":1007_0_0" index="0" speed="13.89" length="26.29" shape="2177.96,2246.68 2174.63,2240.68 2171.43,2235.51 2167.79,2230.68 2163.15,2225.66"/>
        <lane id=":1007_0_1" index="1" speed="13.89" length="26.29" shape="2180.77,2245.16 2177.36,2239.04 2173.96,2233.62 2170.13,2228.53 2165.40,2223.39"/>
    </edge>
    <edge id=":1007_2" function="internal">
        <lane id=":1007_2_0" index="0" speed="13.64" length="5.29" shape="2180.77,2245.16 2178.82,2240.24"/>
    </edge>
    <edge id=":1007_3" function="internal">
        <lane id=":1007_3_0" index="0" speed="8.82" length="5.04" shape="2180.77,2245.16 2178.95,2240.46"/>
    </edge>
    <edge id=":1007_16" function="internal">
        <lane id=":1007_16_0" index="0" speed="13.64" length="24.94" shape="2178.82,2240.24 2177.80,2237.66 2177.18,2230.45 2178.90,2223.52 2182.98,2216.89"/>
    </edge>
    <edge id=":1007_17" function="internal">
        <lane id=":1007_17_0" index="0" speed="8.82" length="20.60" shape="2178.95,2240.46 2177.93,2237.84 2178.65,2232.93 2182.94,2230.43 2190.79,2230.34"/>
    </edge>
    <edge id=":1007_4" function="internal">
        <lane id=":1007_4_0" index="0" speed="5.58" length="9.35" shape="2190.05,2236.70 2187.19,2236.73 2185.62,2237.64 2185.36,2239.44 2186.40,2242.11"/>
    </edge>
    <edge id=":1007_5" function="internal">
        <lane id=":1007_5_0" index="0" speed="13.89" length="28.57" shape="2190.05,2236.70 2182.66,2235.48 2175.54,2233.39 2168.95,2230.19 2163.15,2225.66"/>
        <lane id=":1007_5_1" index="1" speed="13.89" length="28.57" shape="2190.42,2233.52 2183.32,2232.44 2176.85,2230.66 2170.91,2227.78 2165.40,2223.39"/>
    </edge>
    <edge id=":1007_7" function="internal">
        <lane id=":1007_7_0" index="0" speed="8.88" length="25.39" shape="2190.42,2233.52 2182.79,2231.65 2179.01,2228.25 2179.07,2223.33 2182.98,2216.89"/>
    </edge>
    <edge id=":1007_8" function="internal">
        <lane id=":1007_8_0" index="0" speed="5.75" length="9.75" shape="2187.96,2220.92 2186.53,2223.32 2186.59,2225.16 2188.13,2226.44 2191.16,2227.16"/>
    </edge>
    <edge id=":1007_9" function="internal">
        <lane id=":1007_9_0" index="0" speed="11.85" length="22.65" shape="2187.96,2220.92 2184.93,2225.87 2183.66,2231.05 2184.15,2236.46 2186.40,2242.11"/>
        <lane id=":1007_9_1" index="1" speed="12.78" length="26.44" shape="2185.47,2218.90 2181.92,2224.69 2180.42,2230.74 2180.97,2237.06 2183.58,2243.63"/>
    </edge>
    <edge id=":1007_11" function="internal">
        <lane id=":1007_11_0" index="0" speed="9.87" length="23.83" shape="2185.47,2218.90 2180.11,2224.26 2174.98,2226.79 2170.08,2226.50 2165.40,2223.39"/>
    </edge>
    <edge id=":1007_12" function="internal">
        <lane id=":1007_12_0" index="0" speed="7.38" length="12.84" shape="2169.91,2218.84 2172.11,2220.12 2174.61,2219.88 2177.40,2218.14 2180.50,2214.88"/>
    </edge>
    <edge id=":1007_13" function="internal">
        <lane id=":1007_13_0" index="0" speed="13.89" length="24.43" shape="2169.91,2218.84 2174.77,2223.45 2179.29,2226.80 2184.34,2229.05 2190.79,2230.34"/>
    </edge>
    <edge id=":1007_14" function="internal">
        <lane id=":1007_14_0" index="0" speed="13.89" length="28.15" shape="2169.91,2218.84 2174.81,2224.21 2179.03,2229.82 2182.81,2235.75 2186.40,2242.11"/>
        <lane id=":1007_14_1" index="1" speed="13.89" length="28.15" shape="2167.66,2221.11 2172.48,2226.36 2176.50,2231.71 2180.08,2237.39 2183.58,2243.63"/>
    </edge>
    <edge id=":10080_0" function="internal">
        <lane id=":10080_0_0" index="0" speed="9.21" length="12.78" shape="3669.04,4360.30 3668.40,4363.58 3666.99,4366.28 3664.81,4368.41 3661.85,4369.97"/>
        <lane id=":10080_0_1" index="1" speed="7.86" length="9.13" shape="3665.85,4360.07 3665.39,4362.41 3664.38,4364.34 3662.83,4365.87 3660.72,4366.98"/>
    </edge>
    <edge id=":10080_2" function="internal">
        <lane id=":10080_2_0" index="0" speed="3.98" length="1.82" shape="3658.44,4360.99 3658.86,4360.77 3659.18,4360.46 3659.38,4360.08 3659.47,4359.61"/>
        <lane id=":10080_2_1" index="1" speed="6.23" length="5.47" shape="3659.58,4363.98 3660.85,4363.31 3661.78,4362.40 3662.39,4361.24 3662.66,4359.84"/>
    </edge>
    <edge id=":10083_0" function="internal">
        <lane id=":10083_0_0" index="0" speed="13.89" length="22.85" shape="2813.84,5028.47 2807.48,5028.25 2802.50,5028.10 2797.52,5028.15 2791.18,5028.55"/>
        <lane id=":10083_0_1" index="1" speed="13.89" length="22.85" shape="2813.93,5025.27 2807.52,5025.05 2802.41,5024.90 2797.31,5024.96 2790.92,5025.36"/>
    </edge>
    <edge id=":10083_2" function="internal">
        <lane id=":10083_2_0" index="0" speed="8.82" length="5.86" shape="2813.93,5025.27 2808.14,5024.37"/>
    </edge>
    <edge id=":10083_8" function="internal">
        <lane id=":10083_8_0" index="0" speed="8.82" length="19.78" shape="2808.14,5024.37 2806.16,5024.06 2802.28,5020.97 2802.28,5016.01 2806.16,5009.17"/>
    </edge>
    <edge id=":10083_3" function="internal">
        <lane id=":10083_3_0" index="0" speed="5.58" length="9.36" shape="2811.27,5013.01 2809.86,5015.50 2809.86,5017.31 2811.28,5018.44 2814.11,5018.88"/>
    </edge>
    <edge id=":10083_4" function="internal">
        <lane id=":10083_4_0" index="0" speed="13.89" length="23.35" shape="2808.71,5011.09 2803.77,5017.10 2799.15,5021.48 2794.87,5024.24 2790.92,5025.36"/>
    </edge>
    <edge id=":10083_5" function="internal">
        <lane id=":10083_5_0" index="0" speed="13.17" length="17.98" shape="2790.40,5018.98 2792.99,5018.10 2796.05,5015.86 2799.59,5012.24 2803.59,5007.26"/>
    </edge>
    <edge id=":10083_6" function="internal">
        <lane id=":10083_6_0" index="0" speed="13.89" length="23.55" shape="2790.40,5018.98 2796.90,5018.58 2802.24,5018.52 2807.59,5018.66 2814.11,5018.88"/>
        <lane id=":10083_6_1" index="1" speed="13.89" length="23.55" shape="2790.66,5022.17 2797.11,5021.77 2802.33,5021.71 2807.56,5021.85 2814.02,5022.07"/>
    </edge>
    <edge id=":10085_0" function="internal">
        <lane id=":10085_0_0" index="0" speed="3.92" length="2.33" shape="2892.20,4818.48 2891.58,4818.52 2891.09,4818.74 2890.73,4819.15 2890.52,4819.74"/>
        <lane id=":10085_0_1" index="1" speed="6.10" length="6.99" shape="2892.44,4815.29 2890.56,4815.41 2889.10,4816.08 2888.04,4817.30 2887.40,4819.07"/>
    </edge>
    <edge id=":10085_2" function="internal">
        <lane id=":10085_2_0" index="0" speed="9.00" length="16.31" shape="2881.14,4817.73 2882.64,4813.60 2885.11,4810.75 2888.53,4809.19 2892.91,4808.91"/>
        <lane id=":10085_2_1" index="1" speed="7.69" length="11.65" shape="2884.27,4818.40 2885.34,4815.45 2887.10,4813.42 2889.55,4812.30 2892.68,4812.10"/>
    </edge>
    <edge id=":1009_0" function="internal">
        <lane id=":1009_0_0" index="0" speed="7.26" length="13.93" shape="2278.31,2118.58 2276.30,2116.98 2273.77,2117.17 2270.74,2119.17 2267.19,2122.97"/>
    </edge>
    <edge id=":1009_1" function="internal">
        <lane id=":1009_1_0" index="0" speed="13.27" length="23.51" shape="2278.31,2118.58 2274.85,2115.12 2270.14,2112.78 2264.15,2111.55 2256.91,2111.44"/>
    </edge>
    <edge id=":1009_2" function="internal">
        <lane id=":1009_2_0" index="0" speed="13.89" length="35.81" shape="2278.31,2118.58 2273.96,2111.34 2269.74,2102.67 2265.98,2093.77 2262.99,2085.82"/>
        <lane id=":1009_2_1" index="1" speed="13.89" length="35.81" shape="2280.93,2116.74 2276.64,2109.62 2272.56,2101.22 2268.94,2092.58 2266.01,2084.76"/>
    </edge>
    <edge id=":1009_4" function="internal">
        <lane id=":1009_4_0" index="0" speed="11.17" length="6.78" shape="2280.93,2116.74 2278.07,2111.15 2278.01,2110.65"/>
    </edge>
    <edge id=":1009_23" function="internal">
        <lane id=":1009_23_0" index="0" speed="11.17" length="17.12" shape="2278.01,2110.65 2277.40,2105.66 2278.92,2100.26 2282.63,2094.95"/>
    </edge>
    <edge id=":1009_5" function="internal">
        <lane id=":1009_5_0" index="0" speed="9.59" length="17.39" shape="2284.99,2097.11 2282.94,2100.44 2282.45,2104.20 2283.52,2108.41 2286.16,2113.06"/>
    </edge>
    <edge id=":1009_6" function="internal">
        <lane id=":1009_6_0" index="0" speed="13.89" length="31.35" shape="2284.99,2097.11 2281.67,2101.62 2277.18,2108.51 2272.15,2116.17 2267.19,2122.97"/>
        <lane id=":1009_6_1" index="1" speed="13.89" length="31.35" shape="2284.99,2097.11 2264.70,2120.95"/>
    </edge>
    <edge id=":1009_8" function="internal">
        <lane id=":1009_8_0" index="0" speed="13.89" length="5.48" shape="2284.99,2097.11 2280.55,2100.33"/>
    </edge>
    <edge id=":1009_9" function="internal">
        <lane id=":1009_9_0" index="0" speed="9.60" length="3.45" shape="2284.99,2097.11 2282.05,2098.92"/>
    </edge>
    <edge id=":1009_24" function="internal">
        <lane id=":1009_24_0" index="0" speed="13.89" length="25.26" shape="2280.55,2100.33 2273.34,2103.85 2264.88,2106.79 2256.73,2108.25"/>
    </edge>
    <edge id=":1009_25" function="internal">
        <lane id=":1009_25_0" index="0" speed="9.60" length="25.29" shape="2282.05,2098.92 2279.03,2100.77 2273.89,2098.87 2269.55,2093.00 2266.01,2084.76"/>
    </edge>
    <edge id=":1009_10" function="internal">
        <lane id=":1009_10_0" index="0" speed="7.85" length="18.70" shape="2272.04,2082.63 2274.99,2089.87 2277.73,2094.33 2280.28,2096.03 2282.63,2094.95"/>
    </edge>
    <edge id=":1009_11" function="internal">
        <lane id=":1009_11_0" index="0" speed="13.89" length="34.07" shape="2272.04,2082.63 2274.84,2090.21 2278.19,2098.31 2282.00,2106.18 2286.16,2113.06"/>
        <lane id=":1009_11_1" index="1" speed="13.89" length="34.07" shape="2269.03,2083.69 2271.89,2091.39 2275.38,2099.76 2279.32,2107.90 2283.55,2114.90"/>
    </edge>
    <edge id=":1009_13" function="internal">
        <lane id=":1009_13_0" index="0" speed="13.89" length="6.28" shape="2269.03,2083.69 2270.56,2089.79"/>
    </edge>
    <edge id=":1009_14" function="internal">
        <lane id=":1009_14_0" index="0" speed="11.02" length="5.86" shape="2269.03,2083.69 2270.40,2089.38"/>
    </edge>
    <edge id=":1009_26" function="internal">
        <lane id=":1009_26_0" index="0" speed="13.89" length="32.96" shape="2270.56,2089.79 2271.70,2094.35 2271.87,2104.11 2269.53,2112.98 2264.70,2120.95"/>
    </edge>
    <edge id=":1009_27" function="internal">
        <lane id=":1009_27_0" index="0" speed="11.02" length="28.04" shape="2270.40,2089.38 2271.39,2093.48 2270.50,2101.04 2265.79,2106.07 2256.73,2108.25"/>
    </edge>
    <edge id=":1009_15" function="internal">
        <lane id=":1009_15_0" index="0" speed="8.80" length="21.13" shape="2256.36,2101.86 2261.29,2100.60 2264.04,2097.51 2264.61,2092.58 2262.99,2085.82"/>
    </edge>
    <edge id=":1009_16" function="internal">
        <lane id=":1009_16_0" index="0" speed="13.89" length="27.49" shape="2256.36,2101.86 2264.20,2101.06 2271.97,2099.58 2278.50,2097.51 2282.63,2094.95"/>
    </edge>
    <edge id=":1009_17" function="internal">
        <lane id=":1009_17_0" index="0" speed="13.89" length="30.00" shape="2256.55,2105.05 2265.48,2105.25 2272.95,2106.96 2278.98,2110.18 2283.55,2114.90"/>
    </edge>
    <edge id=":1009_18" function="internal">
        <lane id=":1009_18_0" index="0" speed="8.21" length="23.46" shape="2256.55,2105.05 2262.88,2106.21 2266.68,2109.89 2267.45,2115.13 2264.70,2120.95"/>
    </edge>
    <edge id=":1009_19" function="internal">
        <lane id=":1009_19_0" index="0" speed="5.50" length="9.60" shape="2259.72,2116.93 2261.34,2114.36 2261.41,2112.59 2259.94,2111.62 2256.91,2111.44"/>
    </edge>
    <edge id=":1009_20" function="internal">
        <lane id=":1009_20_0" index="0" speed="13.89" length="32.71" shape="2259.72,2116.93 2263.65,2110.38 2265.50,2103.02 2265.28,2094.83 2262.99,2085.82"/>
    </edge>
    <edge id=":1009_21" function="internal">
        <lane id=":1009_21_0" index="0" speed="13.89" length="31.76" shape="2259.72,2116.93 2265.48,2110.73 2272.27,2104.41 2278.51,2098.85 2282.63,2094.95"/>
    </edge>
    <edge id=":1009_22" function="internal">