<?xml version="1.0" encoding="UTF-8"?>

<!-- generated on 2026-07-09 15:41:13 by Eclipse SUMO duarouter Version 1.20.0
<configuration xmlns:xsi="http://www.w3.org/2001/XMLSchema-instance" xsi:noNamespaceSchemaLocation="http://sumo.dlr.de/xsd/duarouterConfiguration.xsd">

    <input>
        <net-file value="/tmp/claude-0/-home-user-Traffic/de3582b1-ade1-512c-9f46-b4ec24b8f796/scratchpad/mix2/net.net.xml"/>
        <route-files value="/tmp/claude-0/-home-user-Traffic/de3582b1-ade1-512c-9f46-b4ec24b8f796/scratchpad/mix2/trips.xml"/>
    </input>

    <output>
        <output-file value="/tmp/claude-0/-home-user-Traffic/de3582b1-ade1-512c-9f46-b4ec24b8f796/scratchpad/mix2/rou.rou.xml"/>
        <named-routes value="true"/>
    </output>

    <report>
        <ignore-errors value="true"/>
    </report>

    <random_number>
        <seed value="33"/>
    </random_number>

</configuration>
-->

<routes xmlns:xsi="http://www.w3.org/2001/XMLSchema-instance" xsi:noNamespaceSchemaLocation="http://sumo.dlr.de/xsd/routes_file.xsd">
    <route id="r0" edges="-7983 8023 -8028 -6718 -6383 -5195 -5084 -4818 -2755 2743 3208 -2984 2956 -3314 3344 3707 3878 4184 4780 rb2_4779_in rb2_ring_NW rb2_ring_WS rb2_5006_out 5143"/>
    <vehicle id="0" depart="0.00" route="r0"/>
    <route id="r1" edges="4112 -3838 3839 -2610 -2369 -2100 2092 -2283 -325 -206 -176 178 214 767 -752 748 798 929 4185 5644 -5691 -5197 -5189 5188 5195 -9473 -9121 9113 9466 10352"/>
    <vehicle id="1" depart="0.40" route="r1"/>
    <route id="r2" edges="-9207 -7268 -6952 -6419 -5606 -5222 -4847 -4638 -4176 -4166 -3314 -2792 -2272 -1910 -1671 -1537 -1530 1531 -2800 -2728 -3 19 -2288 -2086 2062 2287 -2124 2130 2842 3692 3843 7966 8540 9083"/>
    <vehicle id="2" depart="0.80" route="r2"/>
    <route id="r3" edges="7295 -9850 -9256 9246 -7295 7287 -5619 -5339 -5125 -4758 -4184 -3878 -3707 -3344 -2792 -2272 2270 -2680 2679 -922 -778 -527 553 614 752 -767"/>
    <vehicle id="3" depart="1.20" route="r3"/>
    <route id="r4" edges="-9207 -7268 -6952 -6419 -5606 -5222 -4847 -4638 -4176 -3861 -3208 -2743 2755 -5567 -5205 -5164 -5047 5045"/>
    <vehicle id="4" depart="1.60" route="r4"/>
    <route id="r5" edges="-721 -512 518 566 2086 2288 -19 3 2728 2800 -1531 1529 2952 3702 3854 4163 4521 5098 5211 7650 8694 9131 9615"/>
    <vehicle id="5" depart="2.00" route="r5"/>
    <route id="r6" edges="-7604 -2614 2610 -3839 3838 -4112 4118 4812 5068 -7839 -7615 7617 7894 9064 10089 11226"/>
    <vehicle id="6" depart="2.40" route="r6"/>
    <route id="r7" edges="8379 9404 -9052 -8389 -7836 -6273 -5671 -5558 -5180 -5174 -5170 -3575 -3097 -2815 -2731 -2605 -2289 2288 -19 3 2728 2800 -1531 1529 2952 3702 3854 4165 4843 5112 5144"/>
    <vehicle id="7" depart="2.80" route="r7"/>
    <route id="r8" edges="-3776 3752 6162 -5644 -3881 -925 -2258 -1904 -922 924 968 1008 1304 1529 2952 3702 3854 4163 4521 5098 5211 7650 8694 9131 9579 10485"/>
    <vehicle id="8" depart="3.20" route="r8"/>
    <route id="r9" edges="-7175 rb3_6703_in rb3_ring_SE rb3_ring_EN rb3_6382_out -6383 -5195 -5084 -4818 -2755 2743 3208 -2984 2956 -3314 -2792"/>
    <vehicle id="9" depart="3.60" route="r9"/>
    <route id="r10" edges="-8856 -8312 -7486 -7121 -6583 -3749 -3453 -1543 1547 3776 -3881 -925 -2666 2665 2678 3208 3861 4176 4638 4903 5115 5878 -5880 5938 6470 6986"/>
    <vehicle id="10" depart="4.00" route="r10"/>
    <route id="r11" edges="-580 564 -1860 1888 2130 2842 3682 3780 5170 5174 5180 5558 5671 6273 7836 8389"/>
    <vehicle id="11" depart="4.40" route="r11"/>
    <route id="r12" edges="7891 8492 -9083 -8540 -7966 -3843 3839 -2610 -2369 -2100 2092 -2283 -325 -206 -176 178 214 767 -752 748 798 929 4185 -3776 3752"/>
    <vehicle id="12" depart="4.80" route="r12"/>
    <route id="r13" edges="-9409 -6273 -5671 -5558 -5180 -5174 -5170 -3575 -3097 -2815 -2731 -2605 -2289 2288 -19 3 2728 2800 -1531 1529 2952 3702 3854 4165 4843 5112 5144 5340 -5156"/>
    <vehicle id="13" depart="5.20" route="r13"/>
    <route id="r14" edges="-10485 -9579 -9131 -8694 -7650 -5211 -5098 -4521 -4163 -3854 -3702 -2952 -1529 -1304 -1008 -968 -924 922 1904 2258 925 3881 -3776 -1547 1543 3453 3749 6583 7121 7486 8312 9006 9899"/>
    <vehicle id="14" depart="5.60" route="r14"/>
    <route id="r15" edges="-29 -25 -9 19 -2288 -2086 2062 2287 -2124 2130 2842 3692 3843 7966 8560 9085 -8538"/>
    <vehicle id="15" depart="6.00" route="r15"/>
    <route id="r16" edges="6963 -7273 -6951 -6417 -5606 -5222 -4847 -4638 -4176 -3861 -3208 -2743 2755 4818 5084 5195 6383 rb3_6382_in rb3_ring_NW rb3_ring_WS rb3_6703_out 7175"/>
    <vehicle id="16" depart="6.40" route="r16"/>
    <route id="r17" edges="-10945 10859 -10354 10353 -9535 9473 -5195 -5084 -4818 -2755 -2668 -2582 2588 -2593 -1933 -1679 1673 -1906 2952 3702 3854 4163 4521 5098 5211 7650 8694 9131 9579 10513"/>
    <vehicle id="17" depart="6.80" route="r17"/>
    <route id="r18" edges="-2116 2130 2842 3692 3843 7966 8560 9091 10336"/>
    <vehicle id="18" depart="7.20" route="r18"/>
    <route id="r19" edges="-10126 -7925 -7838 7839 -5068 -4812 -4118 -3836 -3684 -2842 -2130 2124 -2287 -2062 2086 2288 -19 9 25"/>
    <vehicle id="19" depart="7.60" route="r19"/>
    <route id="r20" edges="-3804 -3684 -2842 2474 -2359 -2100 2092 -2283 -325 -206 -176 178 208 988 -975 977 1017 1413 1543 3453 3747 -7797 7801 8303 8834 9264 9873 10959"/>
    <vehicle id="20" depart="8.00" route="r20"/>
    <route id="r21" edges="-11220 -10089 -9064 -7894 -7617 7615 7839 -5068 -4812 -4118 4112 -3838 3839 -2610 -2369 -2100 2092 -2283 -325 -206 -176 178 214 767 -752 748 798 929 4185 5644 -5691 -5197 -5189 5188 -5084"/>
    <vehicle id="21" depart="8.40" route="r21"/>
    <route id="r22" edges="-10380 10355 -9883 -9264 -8834 -8303 -7801 7797 7803 7808 8364 9012"/>
    <vehicle id="22" depart="8.80" route="r22"/>
    <route id="r23" edges="1172 -1276 1304 1531 -2800 -2728 -3 19 -2288 -2086 2062 2287 -2124 2130 2842 3684 3804"/>
    <vehicle id="23" depart="9.20" route="r23"/>
    <route id="r24" edges="-10945 -9871 -9264 -8834 -8303 -7801 7797 -3747 -3453 -1543 -1413 -1017 -977 975 -988 -208 -178 176 206 325 2284 -2112 2100 2359 -2474 2842 3682 3780 5170 5174 5180 5558 5671 6187 -6690 -6173"/>
    <vehicle id="24" depart="9.60" route="r24"/>
    <route id="r25" edges="-10857 -9861 -9262 -8826 -8303 -7801 7797 -3747 -3453 -1543 1547 3776 -3881 -925 -2258 -1904 -922 924 968 1008 1304 1529 2952 3702 3854 4163 4521 5098 5211 7650 8694 9131 9579 10491"/>
    <vehicle id="25" depart="10.00" route="r25"/>
    <route id="r26" edges="-10485 -9579 -9131 -8694 -7650 -5211 -5098 -4521 -4163 -3854 -3702 -2952 -1529 1531 -2800 -2728 -3 19 -2288 -2086 2062 2287 -2124 2130 2842 3692 3843 7966 8560 9091 10336"/>
    <vehicle id="26" depart="10.40" route="r26"/>
    <route id="r27" edges="-11292 -10081 10063 -10089 -9064 -7894 7892 -7162 -6694 6696 -7838"/>
    <vehicle id="27" depart="10.80" route="r27"/>
    <route id="r28" edges="-9207 -7268 -6952 -6419 -5606 -5222 -4847 -4638 -4176 -4166 -3314 -2792 -2272 -1910 -1671 -1537 -1530 1531 -2800 -2728 -3 19 -2288 -2086 2062 2287 -2124 2130 2842 3684 3836 4118 4812 5068 -7839 -7615 7617 7894 9064 10089 -10063 10081 11292"/>
    <vehicle id="28" depart="11.20" route="r28"/>
    <route id="r29" edges="-6952 -6419 6417 6949 7260 7666 8709 9174 -8171 8187 9848 10821"/>
    <vehicle id="29" depart="11.60" route="r29"/>
    <route id="r30" edges="-7818 -7604 -2614 -2369 -2100 2092 -2283 -325 -206 -176 178 214 767 -752 748 798 929 4185 5644 -5691 -5197 -5189 5188 5195 6383 6718 7199 7631"/>
    <vehicle id="30" depart="12.00" route="r30"/>
    <route id="r31" edges="-3804 -3684 -2842 2474 -2359 -2100 2092 -2283 -325 -206 -176 178 208 988 -975 977 1017 1413 1543 3453 3747 -7797 -6579 -3745"/>
    <vehicle id="31" depart="12.40" route="r31"/>
    <route id="r32" edges="-6986 -6470 -5938 5880 -5878 -5115 -4903 -4638 -4176 -3861 -3208 -2743 2755 4818 5084 5195 -9473 9535 -10353 10354 -10859 10945"/>
    <vehicle id="32" depart="12.80" route="r32"/>
    <route id="r33" edges="5683 6696 -7838 7839 -5068 -4812 -4118 -3836 -3684 -2842 -2130 2124 -2287 -2062 2086 2288 -19 3 2728 2800 -1531 -1304"/>
    <vehicle id="33" depart="13.20" route="r33"/>
    <route id="r34" edges="-7818 -7604 -2614 2610 -3839 3838 -4112 4118 4812 5068 -7839 -7615 7617 7894 9064 10089 11226"/>
    <vehicle id="34" depart="13.60" route="r34"/>
    <route id="r35" edges="-3864 -3707 -3344 -2792 -2272 -1910 -1671 -1537 -1530 1531 -2800 -2728 -3 19 -2288 -2086 2062 2287 -2124 2130 2842 3684 3836 4118 4812 5068 -7839 -7615 7617 7894 9058"/>
    <vehicle id="35" depart="14.00" route="r35"/>
    <route id="r36" edges="-9542 -9129 -8688 -7650 -7209 -6930 6940 7211 -8295 -7796 7304 -7301 -6988 -6964"/>
    <vehicle id="36" depart="14.40" route="r36"/>
    <route id="r37" edges="-7175 rb3_6703_in rb3_ring_SE rb3_ring_EN rb3_6382_out -6383 -5195 -5084 -4818 -2755 2743 3208 3861 4176 4638 4847"/>
    <vehicle id="37" depart="14.80" route="r37"/>
    <route id="r38" edges="-10380 -9472 -9113 9121 9473 -5195 -5084 -4818 -2755 2743 3208 3861 4172 4637 4844 -4654 -4176"/>
    <vehicle id="38" depart="15.20" route="r38"/>
    <route id="r39" edges="-8856 -8312 -7486 -7121 -6583 -3749 -3453 -1543 1547 3776 -3881 -925 -2666 2665 2678 3208 3861 4176 4638 4847 5222 5606 6419 6960"/>
    <vehicle id="39" depart="15.60" route="r39"/>
    <route id="r40" edges="-6682 -1543 -1413 -1017 -977 975 -988 -208 -178 176 206 325 2284 -2112 2100 2369 2638 7832 11206"/>
    <vehicle id="40" depart="16.00" route="r40"/>
    <route id="r41" edges="-721 -512 518 580 1888 2130 2842 3684 3836 4118 4812 5068 -7839 -7615 7617 7894 9076 10090"/>
    <vehicle id="41" depart="16.40" route="r41"/>
    <route id="r42" edges="5878 -5880 5879 -5619 5623 8293 8295 -7211 -6940 6934 7655 8161 -9557 9615"/>
    <vehicle id="42" depart="16.80" route="r42"/>
    <route id="r43" edges="-6986 6988 7301 -7304 7796 8295 -5771 -5220 -5111 -4829 -4165 -3854 -3702 -2952 -1529 1531 -2800 -2728 -3 9 25 29 33 63 -170"/>
    <vehicle id="43" depart="17.20" route="r43"/>
    <route id="r44" edges="-5329 -5125 -4758 -4184 -3878 -3707 -3344 -2792 -2272 2270 -2680 2679 1904 2258 -780 786"/>
    <vehicle id="44" depart="17.60" route="r44"/>
    <route id="r45" edges="-400 -335 -206 -176 178 214 767 -752 748 798 929 4185 5644 -5691 -5197 -5164 -5047"/>
    <vehicle id="45" depart="18.00" route="r45"/>
    <route id="r46" edges="-11220 -10089 -9064 -7894 -7617 7615 7839 -5068 -4812 -4118 -3836 -3684 -2842 -2130 2124 -2287 -2062 2086 2288 -19 3 2728 2800 -1531 1529 2952 3702 3854 4163 4521 5098 5211 -6941 6411"/>
    <vehicle id="46" depart="18.40" route="r46"/>
    <route id="r47" edges="-9012 -8364 -7808 -7803 -7797 7801 8303 8834 9264 9883 -10355 10380"/>
    <vehicle id="47" depart="18.80" route="r47"/>
    <route id="r48" edges="-9012 -8364 -7808 -7803 -3747 -3453 -1543 -1413 -1017 -977 975 -988 -208 -178 176 206 335 400 512 721"/>
    <vehicle id="48" depart="19.20" route="r48"/>
    <route id="r49" edges="9219 9825 -7275 -6951 -6417 -5606 -5222 -4847 -4638 -4176 -3861 -3208 -2743 2755 4818 5084 5195 6383 6718 7199 7637 8024"/>
    <vehicle id="49" depart="19.60" route="r49"/>
    <route id="r50" edges="-6055 -5629 -5156 -5112 -4843 -4165 -3854 -3702 -2952 -1529 1531 -2800 -2728 -3 19 -2288 -2086 2062 2287 -2124 2130 2842 3684 3836 4118 4812 5068 -7839 7838 7927"/>
    <vehicle id="50" depart="20.00" route="r50"/>
    <route id="r51" edges="7830 -7832 -2638 -2369 -2100 2092 -2283 -325 -206 -176 178 208 988 -975 977 1017 1413 1543 3453 3749 6583 7121 7486 8312 8942"/>
    <vehicle id="51" depart="20.40" route="r51"/>
    <route id="r52" edges="-7253 -5105 -4829 -4165 -3854 -3702 -2952 -1529 1531 -2800 -2728 -3 19 -2288 -2086 2062 2287 -2124 2130 2842 3692 3843 7966 8540"/>
    <vehicle id="52" depart="20.80" route="r52"/>
    <route id="r53" edges="-904 -756 748 798 929 4185 -3776 -1547 1543 6682"/>
    <vehicle id="53" depart="21.20" route="r53"/>
    <route id="r54" edges="-1893 -409 437 1004 1132 -1531 1529 2952 3702 3854 4165 -4519"/>
    <vehicle id="54" depart="21.60" route="r54"/>
    <route id="r55" edges="-2582 2588 2679 -922 -778 -527 -491 411"/>
    <vehicle id="55" depart="22.00" route="r55"/>
    <route id="r56" edges="-7983 8023 -8028 -6718 -6383 -5195 -5084 5094 5197 5691 -5644 -4185 -929 -798 -748 752 -767 -214 -178 176 206 325 2284 -2112 2100 2369 2610 -3839 3838 8533 -7968"/>
    <vehicle id="56" depart="22.40" route="r56"/>
    <route id="r57" edges="-11226 -10089 -9064 -7894 -7617 7615 7839 -5068 -4812 -4118 4112 -3838 3839 -2610 -2369 -2100 2092 -2283 -325 -206 -176 178 214 767 -752 748 798 949"/>
    <vehicle id="57" depart="22.80" route="r57"/>
    <route id="r58" edges="-10513 -9579 -9131 -8694 -7650 -5211 -5098 -4521 -4163 -3854 -3702 -2952 -1529 -1304 -1008 -968 -924 922 1904 2258 925 3881 -3776 -1547 1543 3453 3747 7803 7808 8360 9010 9384"/>
    <vehicle id="58" depart="23.20" route="r58"/>
    <route id="r59" edges="2289 -2050 2086 2288 -19 3 2728 2800 -1531 1530 1537 1671 1910 2272 2792 3344 3707 3864"/>
    <vehicle id="59" depart="23.60" route="r59"/>
    <route id="r60" edges="rb2_ring_SE rb2_ring_EN rb2_4779_out -4780 -4184 -3878 -3707 -3344 3314 -2956 2984 -3208 -2743 2755 -5567 -5205 5197 5737"/>
    <vehicle id="60" depart="24.00" route="r60"/>
    <route id="r61" edges="-10126 -7925 -7838 7891 8526 9056 9413"/>
    <vehicle id="61" depart="24.40" route="r61"/>
    <route id="r62" edges="-564 566 2086 2288 -19 3 2728 2800 -1531 1529 2952 3702 3854 4165 4829 5111 5220 5771 -8295 -7796 7304 -7301 7295 -9246 9254"/>
    <vehicle id="62" depart="24.80" route="r62"/>
    <route id="r63" edges="3881 -4185 -929 -798 -748 -614 -553 -491 437 1004 -1020 -3 19 -2288 2289 2605 2731 2815 3097 3571 5648 6166 -5666"/>
    <vehicle id="63" depart="25.20" route="r63"/>
    <route id="r64" edges="-10464 -9535 9473 -5195 -5084 -4818 -2755 2743 3208 -2984 -2790 -2274 -1743"/>
    <vehicle id="64" depart="25.60" route="r64"/>
    <route id="r65" edges="-1893 -409 437 1004 1132 -1531 1529 2952 3702 3854 4165 4843 5112 -5015 5033 -5103"/>
    <vehicle id="65" depart="26.00" route="r65"/>
    <route id="r66" edges="10348 -10356 10355 -9883 -9264 -8834 -8303 -7801 7797 -3747 3749 6583 7121 7486 8312 8942"/>
    <vehicle id="66" depart="26.40" route="r66"/>
    <route id="r67" edges="9246 -7295 7287 -5619 -5339 -5125 -4758 -4184 -3878 -3707 -3344 3314 -2956 2984 -3208 -2743 2755 4818 5084 5195 6383 rb3_6382_in rb3_ring_NW rb3_ring_WS rb3_6703_out 7175"/>
    <vehicle id="67" depart="26.80" route="r67"/>
    <route id="r68" edges="494 -396 -333 -206 -176 -166 202 220 339 437 1004 1172 -1276 1275 -1530"/>
    <vehicle id="68" depart="27.20" route="r68"/>
    <route id="r69" edges="-10126 -7925 -7838 7839 -5068 -4812 -4118 4112 -3838 3839 -2610 -2369 -2100 2092 -2283 -325 -206 -176 178 208 988 -975 977 1017 1413 1543 3453 3749 6583 7121 7486 8312 8856"/>
    <vehicle id="69" depart="27.60" route="r69"/>
    <route id="r70" edges="-9012 -8364 -7808 -7803 -3747 -3453 -1543 1547 3776 -3881 -925 -2258 -1904 -922 924 968 1008 1304 1529 2952 3702 3854 4163 4521 5098 5211 7650 8694 9131 9579 10513"/>
    <vehicle id="70" depart="28.00" route="r70"/>
    <route id="r71" edges="-10945 10859 -10354 10353 -9535 9473 -5195 -5084 -4818 -2755 -2668 -2582 2588 -2593 -1933 -1679 1673 -1906 2952 3702 3854 4163 4523 9169 10621"/>
    <vehicle id="71" depart="28.40" route="r71"/>
    <route id="r72" edges="-4152 400 518 580 1888 2116"/>
    <vehicle id="72" depart="28.80" route="r72"/>
    <route id="r73" edges="-6404 -5209 -5098 -4521 -4163 -3854 -3702 -2952 1906 -1673 1679 1933 2593 -2588 2582 2668 2755 4818 5084 5195 6383 6718 7199 7631 8023 -8028"/>
    <vehicle id="73" depart="29.20" route="r73"/>
    <route id="r74" edges="-10707 -9169 -4523 4519 4843 5112 -5015 -4780 -4184 -3878 -3707 -3344 3314 -2956 2984 -3208 7646 8037 -8679 -8033"/>
    <vehicle id="74" depart="29.60" route="r74"/>
    <route id="r75" edges="-10945 10859 -10354 10353 -9535 9473 -5195 -5084 -4818 -2755 2743 3208 3861 4176 4638 4847 -4846"/>
    <vehicle id="75" depart="30.00" route="r75"/>
    <route id="r76" edges="-5648 -3571 -3097 -2815 2805 -2124 -1888 1859 2092 -2283 494 -396 344 499 -557"/>
    <vehicle id="76" depart="30.40" route="r76"/>
    <route id="r77" edges="3684 3836 4112 -3838 3839 -2610 -2369 -2100 2092 -2283 -325 333"/>
    <vehicle id="77" depart="30.80" route="r77"/>
    <route id="r78" edges="-6583 -3749 -3453 -1543 1547 3752 6162 -5691 -5197 -5094 5074 5186"/>
    <vehicle id="78" depart="31.20" route="r78"/>
    <route id="r79" edges="-200 -37 -29 -25 -9 19 -2288 -2086 2062 2287 -2124 -1888"/>
    <vehicle id="79" depart="31.60" route="r79"/>
    <route id="r80" edges="-5043 -4794 -3888 3898 4199 6579 7801 8303 8826 9262 9861 10835 -9867"/>
    <vehicle id="80" depart="32.00" route="r80"/>
    <route id="r81" edges="-3804 -3684 -2842 -2130 2124 -2287 -2062 2086 2288 -19 3 2728 2800 -1531 1530 1537 1743 2274 2790 2984 -3208 7646 8053"/>
    <vehicle id="81" depart="32.40" route="r81"/>
    <route id="r82" edges="-10126 -7925 -7838 -7615 7617 7894 9064 10089 11288"/>
    <vehicle id="82" depart="32.80" route="r82"/>
    <route id="r83" edges="-518 -400 -335 -206 -176 178 214 767 -752 748 798 929 4185 5644 -5691 -5197 -5189 5188 5195 -9473 -9121 9113 9466 10352"/>
    <vehicle id="83" depart="33.20" route="r83"/>
    <route id="r84" edges="-9899 -9006 -8312 -7486 -7121 -6583 -3749 -3453 -1543 -1413 -1017 -977 975 -988 -208 -178 176 206 325 2284 -2112 2100 2369 2610 -3839 3843 7966 8540 9083 -8492 8526 9056 9415 10087 -10084 -9413 -9056"/>
    <vehicle id="84" depart="33.60" route="r84"/>
    <route id="r85" edges="-10464 -9535 9473 -5195 -5084 -4818 -2755 -2668 -2582 2588 -2593 -1933 -1679 1673 -1906 2952 3702 3854 4163 4521 5098 5211 -6941"/>
    <vehicle id="85" depart="34.00" route="r85"/>
    <route id="r86" edges="9535 -10381 -9479 9473 -5195 -5084 -4818 -2755 2743 3208 3861 4176 4638 4847 5222 5606 6425 6963 9832 10816"/>
    <vehicle id="86" depart="34.40" route="r86"/>
    <route id="r87" edges="-10857 -9861 -9262 -8826 8834 9264 9869 -10354 10353 -9535 9473 -5195 -5084 -4818 -2755 2743 3208 3861 4176 4638 4847 5222 5606 6417 6949 7260 7666 8709 9174 -8171 8187 9848"/>
    <vehicle id="87" depart="34.80" route="r87"/>
    <route id="r88" edges="-9165 -4521 4533 8697 9129 9542"/>
    <vehicle id="88" depart="35.20" route="r88"/>
    <route id="r89" edges="-411 437 1004 -1020 -3 19 -2288 -2086 2062 2287 -2124 2130 2842 3684 3836 4118 4812 5068 -7839 7838 7927"/>
    <vehicle id="89" depart="35.60" route="r89"/>
    <route id="r90" edges="-10464 -10353 10354 -9869 -9264 -8834 -8303 -7801 7797 7803 7808 8364 9028 -9369"/>
    <vehicle id="90" depart="36.00" route="r90"/>
    <route id="r91" edges="29 33 59 178 208 988 -975 977 1017 1413 1543 3453 3747 -7797 7801 8303 8834 9264 9873 10947"/>
    <vehicle id="91" depart="36.40" route="r91"/>
    <route id="r92" edges="5878 -5880 -5616 -5327 -5125 5117 5325 -5220 -5111 -4829 -4165 4157 -3858"/>
    <vehicle id="92" depart="36.80" route="r92"/>
    <route id="r93" edges="-9012 -8364 -7808 -7803 -3747 -3453 -1543 1547 3776 -3881 -925 -2258 -1904 -2679 2680 -2270 2272 2792 3344 3707 3878 4184 4758 5125 5339 5623 8293 -7796"/>
    <vehicle id="93" depart="37.20" route="r93"/>
    <route id="r94" edges="-594 -553 -491 437 1004 -1020 -3 19 -2288 -2086 2062 2287 -2124 2130 2842 3684 3836 4118 7929"/>
    <vehicle id="94" depart="37.60" route="r94"/>
    <route id="r95" edges="-2842 -2130 2124 -2287 -2062 2086 2288 -19 3 2728 2800 -1531 1530 1537 1671 1910 2272 2792 3314 4166 4176 4638 4847 5222 5606 6425 6963"/>
    <vehicle id="95" depart="38.00" route="r95"/>
    <route id="r96" edges="7279 7675 8187 9848 -10819 -9846 -8187 -7675 -7279 -6984 -6434 -5938 -5616 -5327 -5125 5117"/>
    <vehicle id="96" depart="38.40" route="r96"/>
    <route id="r97" edges="-20 1020 -1004 -437 491 553 614 748 798 929 4191 5635"/>
    <vehicle id="97" depart="38.80" route="r97"/>
    <route id="r98" edges="8694 -9127 -8684 -7650 -5211 -5098 -4521 -4163 -3854 -3702 -2952 -1529 1531 -2800 -2728 -3 19 -2288 -2086 2062 2287 -2124 2130 2474 2608 2638 7832"/>
    <vehicle id="98" depart="39.20" route="r98"/>
    <route id="r99" edges="-6390 -5737 5691 -6162 -3752 -1547 1543 3453 3747 7803 7808 8360 9010 9390 10024 11167"/>
    <vehicle id="99" depart="39.60" route="r99"/>
    <route id="r100" edges="-10818 -9832 -6963 -6425 -5606 -5222 -4847 -4181 -3866 3878 4184 4758 5117 5325 -5220 -5215 7253"/>
    <vehicle id="100" depart="40.00" route="r100"/>
    <route id="r101" edges="-11189 11177 -10043 2800 -1531 1529 2952 3702 3854 4165 4829 5111 5220 5771 -8295 -7796 7304 -7301 7295 -9246 -8717"/>
    <vehicle id="101" depart="40.40" route="r101"/>
    <route id="r102" edges="-10380 -9472 -9113 9121 9473 -5195 -5084 -4818 -2755 2743 3208 3861 4176 4638 4847 5222 5606 6417 6949 7260 7666 8709 9174 -8171 -7675 -7279 -6984"/>
    <vehicle id="102" depart="40.80" route="r102"/>
    <route id="r103" edges="-5186 -5074 -4818 -2755 2743 3208 -2984 -2790 -2274 -1743 1679"/>
    <vehicle id="103" depart="41.20" route="r103"/>
    <route id="r104" edges="-11212 -10059 -8379 -7836 -6273 -5671 -5558 -5180 -5065 -4809 -4116 4112 -3838 3839 -2610 2638 7832 11206"/>
    <vehicle id="104" depart="41.60" route="r104"/>
    <route id="r105" edges="1904 2258 925 3881 5644 -5691 -5197 -5164 -5047 -4794"/>
    <vehicle id="105" depart="42.00" route="r105"/>
    <route id="r106" edges="-10947 -9873 -9264 -8834 -8303 -7801 7797 -3747 -3453 -1543 -1413 -1017 -977 975 -988 -208 -178 176 206 325 2284 -2112 2100 2347"/>
    <vehicle id="106" depart="42.40" route="r106"/>
    <route id="r107" edges="7212 5771 -8295 -7796 7304 -7301 7295 -9246 9254"/>
    <vehicle id="107" depart="42.80" route="r107"/>
    <route id="r108" edges="-7983 8023 -8028 -6718 -6383 -5195 -5084 -4818 -2755 -2668 -2582 2588 2679 -922 924 968 1008 1276 -1172 -1004 -437"/>
    <vehicle id="108" depart="43.20" route="r108"/>
    <route id="r109" edges="5695 -6163 -5644 -3881 -925 -2258 -1904 -2679 2680 -2270 2272 2792 3344 3707 3878 4184 4780 rb2_4779_in"/>
    <vehicle id="109" depart="43.60" route="r109"/>
    <route id="r110" edges="7123 -7590 7589 -3749 -3453 -1543 1547 3776 -3881 -925 -2666 2665 2668"/>
    <vehicle id="110" depart="44.00" route="r110"/>
    <route id="r111" edges="-5174 -5170 -3575 -3097 -2815 -2731 -2605 -2289 2288 -19 3 1020 -1004 -437 411"/>
    <vehicle id="111" depart="44.40" route="r111"/>
    <route id="r112" edges="2956 -3314 3344 3707 3878 4184 4780 rb2_4779_in rb2_ring_NW rb2_ring_WS rb2_5006_out"/>
    <vehicle id="112" depart="44.80" route="r112"/>
    <route id="r113" edges="-7166 7160 7615 7839 -5068 -4812 -4118 -3836 -3684 -2842 -2130 -1888 -580 -518 -400 2154"/>
    <vehicle id="113" depart="45.20" route="r113"/>
    <route id="r114" edges="-3838 -3692 -2842 -2130 2124 -2287 -2062 2086 2288 -19 3 2728 2800 -1531 1529 2952"/>
    <vehicle id="114" depart="45.60" route="r114"/>
    <route id="r115" edges="-7818 -7604 -2614 -2369 -2100 2092 -2283 -325 -206 -176 178 214 767 -752 748 798 929 4185 5644 -5691 -5197 -5189 5188 5195 -9473 -9121 9113 9466 10352"/>
    <vehicle id="115" depart="46.00" route="r115"/>
    <route id="r116" edges="-6426 -5898 5879 -7287 7295 -9246 9254"/>
    <vehicle id="116" depart="46.40" route="r116"/>
    <route id="r117" edges="-3804 -3684 -2842 2474 -2359 -2100 2092 -2283 -325 -206 -176 178 208 988 -975 977 1017 1413 1543 3453 3749 6583 7121 7486 8312 8856"/>
    <vehicle id="118" depart="47.20" route="r117"/>
    <route id="r118" edges="-3804 -3684 -2842 2474 -2359 -2100 2092 -2283 -325 -206 -176 178 214 767 -752 748 798 929 4185 5644 -5691 -5197 -5189 5188 5195 6383 6718 8028 -8023 7983"/>
    <vehicle id="119" depart="47.60" route="r118"/>
    <route id="r119" edges="7894 9076 10090 -10086 -9413 -9056 -8526 8492 -9083 -8540 -7966 -3843 3839 -2610 -2369 -2100 2092 -2283 -325 -206 -176 178 208 988 -975 977 1017 1413 1543 3453 3747 7803 7808 8364 9012"/>
    <vehicle id="120" depart="48.00" route="r119"/>
    <route id="r120" edges="3747 -7797 -6579 -3745 -3453 -1543 -1413 -1017 -977 975 -988 -208 -178 176 206 325 2284 -2112 2100 2359 -2474 2842 3684 3836 4118 4812 5068 -7839 -7615 -7160 7162 -7892"/>
    <vehicle id="121" depart="48.40" route="r120"/>
    <route id="r121" edges="-6404 -5209 -5098 -4521 -4163 -3854 -3702 -2952 1906 -1673 1679 1933 2593 -2588 2582 2668 2755 4818 5084 5195 6383 6718 8028 -8023 7983"/>
    <vehicle id="122" depart="48.80" route="r121"/>
    <route id="r122" edges="-2116 -1888 1859 2092 -2283 -325 -206 -176 178 214 767 -752 748 798 929 4185"/>
    <vehicle id="123" depart="49.20" route="r122"/>
    <route id="r123" edges="5648 6166 -5666 -3571 3575 5170 5174 5180 5558 5671 6273 9409"/>
    <vehicle id="124" depart="49.60" route="r123"/>
    <route id="r124" edges="-4637 -4172 -4166 -3314 -2792 -2272 -1910 -1671 -1537 -1530 1531 -2800 -2728 -3 19 -2288 2289 2605 2731 2815 3097 3567 3794 -5057 5065 -5174"/>
    <vehicle id="125" depart="50.00" route="r124"/>
    <route id="r125" edges="-10380 -9472 -9113 9121 9473 -5195 -5084 -4818 -2755 -2668 -2582 2588 -2593 -1933 -1679 1673 -1906 2952 3702 3854 4163 4521 5098 5211 7650 8694 9131 9579 10491"/>
    <vehicle id="126" depart="50.40" route="r125"/>
    <route id="r126" edges="-7839 7891 8492 -9083 -8540 -7966 -3843 3839 -2610 -2369 -2100 2092 -2283 -325 -206 -176 178 214 767 -752 748 798 929 4185 5644 -5691 -5197 -5189 5188 5195 -9473 -9121 9113 9466 10352"/>
    <vehicle id="127" depart="50.80" route="r126"/>
    <route id="r127" edges="4185 -3881 -925 -2258 -1904 -2679 2680 -2270 2272 2792 3344 3707 3878 4184 4758 5125 5329"/>
    <vehicle id="128" depart="51.20" route="r127"/>
    <route id="r128" edges="-9012 -8364 -7808 -7803 -3747 -3453 -1543 1547 3752 6162 -5691 -5197 -5189 5188 5195 6383 6718 8028 -8023 7983"/>
    <vehicle id="129" depart="51.60" route="r128"/>
    <route id="r129" edges="-411 437 1004 1172 -1276 1275 1537 1671 1910 2272 2792 3344 3707 3878 4184 4758 5125 5329"/>
    <vehicle id="130" depart="52.00" route="r129"/>
    <route id="r130" edges="-4637 -4172 -3861 -3208 -2743 2755 4818 5084 5195 -9473 -9121 9113 9472 10380"/>
    <vehicle id="131" depart="52.40" route="r130"/>
    <route id="r131" edges="-10835 -9861 -9262 -8826 -8303 -7801 7797 -3747 -3453 -1543 -1413 -1017 -977 975 -988 -208 214 767"/>
    <vehicle id="132" depart="52.80" route="r131"/>
    <route id="r132" edges="7160 7615 7839 -5068 -4812 -4118 4112 -3838 3839 -2610 -2369 -2100"/>
    <vehicle id="133" depart="53.20" route="r132"/>
    <route id="r133" edges="-9855 -9262 -8826 -8303 -7801 7797 -3747 -3453 -1543 -1413 -1017 -977 975 -988 -560 -501 -344"/>
    <vehicle id="134" depart="53.60" route="r133"/>
    <route id="r134" edges="-5654 -3571 -3097 -2815 -2731 -2605 -2289 2288 -19 3 2728 2800 -1531 1529 2952 3702 3854 4163 4521 5098 5211 7650 8694 9131 9579 10491"/>
    <vehicle id="135" depart="54.00" route="r134"/>
    <route id="r135" edges="7199 -7179 rb3_6703_in rb3_ring_SE rb3_ring_EN rb3_6382_out -6383 -5195 -5084 -4818 -2755 -2668 -2582 2588 2679 -922 924 968 1008 1276 -1172 -1020 -3 19 -2288 2289 2605 2731 2815 3097 3575 5170 5174 5180 5558 5671 6273 7836 8379 10059 11212"/>
    <vehicle id="136" depart="54.40" route="r135"/>
    <route id="r136" edges="-7253 5215 5220 -5325 -5117 5125 5327 5616 5938 6434 6984 7279 7675 8187 9846 10819"/>
    <vehicle id="137" depart="54.80" route="r136"/>
    <route id="r137" edges="-2154 -335 -206 -176 178 214 767 -752 748 798 929 4185 5644 -5691 -5197 -5189 5188 5195 -9473"/>
    <vehicle id="138" depart="55.20" route="r137"/>
    <route id="r138" edges="-10491 -9579 -9131 -8694 -7650 -5211 -5098 -4521 -4163 -3854 -3702 -2952 -1529 1531 -1132 1172 -1276"/>
    <vehicle id="139" depart="55.60" route="r138"/>
    <route id="r139" edges="-7925 -7838 7839 -5068 -4812 -4118 -3836 -3684 -2842 -2130 2124 -2287 -2062 2086 2288 -19 3 2728 2800 -1531 1529 2952 3702 3854 4165 4829 5111 5220 -5325 -5117 5125 5327 5616 5938 6470 6988"/>
    <vehicle id="140" depart="56.00" route="r139"/>
    <route id="r140" edges="-9384 -9010 -8360 -7808 -7803 -3747 -3453 -1543 -1413 -1017 -977 975 -988 -208 -178 176 206 325 2284 -2112 2100 2369 2610 -3839 3843 7966 8540 9083 -8492 8526 9056 9413 10086"/>
    <vehicle id="141" depart="56.40" route="r140"/>
    <route id="r141" edges="988 -975 -949 929 -786 780 -2666 2665 2678 3208 3861 4176 4638 -4181 -3866"/>
    <vehicle id="142" depart="56.80" route="r141"/>
    <route id="r142" edges="-6055 -5629 -5156 -5112 -4843 -4519 4523 9169 10621"/>
    <vehicle id="143" depart="57.20" route="r142"/>
    <route id="r143" edges="-11212 -10059 -8379 -7836 -6273 -5671 -5558 -5180 -5174 -5170 -3575 -3097 -2815 -2731 -2605 -2289 2288 -19 3 2728 2800 -1531 1529 2952 3702 3854 4163 4521 5098 5211 7650 8694 9131 9615"/>
    <vehicle id="144" depart="57.60" route="r143"/>
    <route id="r144" edges="-9846 -8187 -7675 -7279 -6984 -6434 -5938 -5616 -5327 -5125 -4758 -4184 -3878 -3707 -3344 -2792 -2272 -1910 -1671 -1537 -1275 1276 -1172 -1004 -437 -339 -220 -202 166 176 206 333 356 -559"/>
    <vehicle id="145" depart="58.00" route="r144"/>
    <route id="r145" edges="-11212 -10059 -8379 -7836 -6273 -5671 5683 6696 7927"/>
    <vehicle id="146" depart="58.40" route="r145"/>
    <route id="r146" edges="-5125 5117 5325 -5220 -5215 5748 6941 7650 8688 9129 9556 10472"/>
    <vehicle id="147" depart="58.80" route="r146"/>
    <route id="r147" edges="-37 -29 -25 -9 3 2728 2800 -1531 1529 2952 3702 3854 4163 4521 5098 5211 7650 8694 9131 9579 10513"/>
    <vehicle id="148" depart="59.20" route="r147"/>