<?xml version="1.0" encoding="UTF-8"?>

<!-- generated on 2026-07-18 23:14:33 by Eclipse SUMO netgenerate Version 1.20.0
<configuration xmlns:xsi="http://www.w3.org/2001/XMLSchema-instance" xsi:noNamespaceSchemaLocation="http://sumo.dlr.de/xsd/netgenerateConfiguration.xsd">

    <random_network>
        <rand value="true"/>
        <rand.iterations value="140"/>
        <rand.max-distance value="90.0"/>
        <rand.min-distance value="22.0"/>
        <rand.min-angle value="40"/>
        <rand.connectivity value="0.95"/>
        <rand.neighbor-dist3 value="8.0"/>
        <rand.neighbor-dist4 value="3.0"/>
    </random_network>

    <output>
        <output-file value="/home/user/SumoData/experiments/subarea/synthetic_junction2/grid.net.xml"/>
    </output>

    <processing>
        <random-lanenumber value="true"/>
        <random-priority value="true"/>
    </processing>

    <building_defaults>
        <default.lanenumber value="2"/>
        <default.priority value="4"/>
        <default-junction-type value="priority"/>
    </building_defaults>

    <tls_building>
        <tls.guess value="true"/>
        <tls.guess.threshold value="110.0"/>
        <tls.discard-simple value="false"/>
    </tls_building>

    <junctions>
        <junctions.right-before-left.speed-threshold value="14.0"/>
        <no-turnarounds value="false"/>
    </junctions>

    <random_number>
        <seed value="42"/>
    </random_number>

</configuration>
-->

<net version="1.20" junctionCornerDetail="5" limitTurnSpeed="5.50" xmlns:xsi="http://www.w3.org/2001/XMLSchema-instance" xsi:noNamespaceSchemaLocation="http://sumo.dlr.de/xsd/net_file.xsd">

    <location netOffset="464.60,363.08" convBoundary="0.00,0.00,838.21,793.75" origBoundary="-464.60,-363.08,373.61,430.67" projParameter="!"/>

    <edge id=":1_0" function="internal">
        <lane id=":1_0_0" index="0" speed="13.89" length="16.44" shape="468.20,371.31 465.82,368.13 462.99,364.96 459.91,362.04 456.79,359.58"/>
    </edge>
    <edge id=":1_1" function="internal">
        <lane id=":1_1_0" index="0" speed="12.92" length="18.35" shape="468.20,371.31 466.04,367.22 464.91,362.93 464.82,358.43 465.75,353.73"/>
    </edge>
    <edge id=":1_2" function="internal">
        <lane id=":1_2_0" index="0" speed="7.55" length="16.35" shape="468.20,371.31 466.17,367.08 466.37,363.75 468.78,361.31 473.42,359.76"/>
    </edge>
    <edge id=":1_3" function="internal">
        <lane id=":1_3_0" index="0" speed="3.65" length="4.67" shape="468.20,371.31 468.19,369.87 468.63,369.09 469.52,368.98 470.85,369.53"/>
    </edge>
    <edge id=":1_4" function="internal">
        <lane id=":1_4_0" index="0" speed="5.90" length="9.46" shape="474.02,362.91 471.30,363.80 469.86,365.21 469.71,367.11 470.85,369.53"/>
    </edge>
    <edge id=":1_5" function="internal">
        <lane id=":1_5_0" index="0" speed="13.76" length="18.03" shape="474.02,362.91 469.28,363.40 464.82,363.01 460.66,361.74 456.79,359.58"/>
    </edge>
    <edge id=":1_6" function="internal">
        <lane id=":1_6_0" index="0" speed="7.43" length="16.52" shape="474.02,362.91 469.11,363.17 466.10,361.73 464.98,358.59 465.75,353.73"/>
    </edge>
    <edge id=":1_7" function="internal">
        <lane id=":1_7_0" index="0" speed="3.65" length="4.67" shape="474.02,362.91 472.69,362.35 472.15,361.64 472.39,360.77 473.42,359.76"/>
    </edge>
    <edge id=":1_8" function="internal">
        <lane id=":1_8_0" index="0" speed="5.71" length="9.20" shape="468.81,354.65 468.38,357.36 469.01,359.11 470.69,359.91 473.42,359.76"/>
    </edge>
    <edge id=":1_9" function="internal">
        <lane id=":1_9_0" index="0" speed="11.91" length="15.52" shape="468.81,354.65 468.02,358.64 468.09,362.45 469.04,366.08 470.85,369.53"/>
    </edge>
    <edge id=":1_10" function="internal">
        <lane id=":1_10_0" index="0" speed="7.70" length="16.21" shape="468.81,354.65 466.82,359.09 464.15,361.39 460.81,361.55 456.79,359.58"/>
    </edge>
    <edge id=":1_11" function="internal">
        <lane id=":1_11_0" index="0" speed="3.65" length="4.67" shape="468.81,354.65 467.70,355.57 466.82,355.72 466.17,355.11 465.75,353.73"/>
    </edge>
    <edge id=":1_12" function="internal">
        <lane id=":1_12_0" index="0" speed="6.11" length="9.75" shape="458.62,356.96 460.97,358.09 462.94,357.92 464.54,356.47 465.75,353.73"/>
    </edge>
    <edge id=":1_13" function="internal">
        <lane id=":1_13_0" index="0" speed="12.78" length="15.48" shape="458.62,356.96 461.92,358.79 465.49,359.87 469.32,360.19 473.42,359.76"/>
    </edge>
    <edge id=":1_14" function="internal">
        <lane id=":1_14_0" index="0" speed="13.89" length="17.62" shape="458.62,356.96 461.87,359.54 465.23,362.76 468.34,366.21 470.85,369.53"/>
    </edge>
    <edge id=":1_15" function="internal">
        <lane id=":1_15_0" index="0" speed="3.65" length="4.67" shape="458.62,356.96 459.14,358.30 459.01,359.18 458.23,359.61 456.79,359.58"/>
    </edge>
    <edge id=":100_0" function="internal">
        <lane id=":100_0_0" index="0" speed="13.89" length="28.49" shape="526.18,419.08 524.72,427.44 522.07,434.24 518.25,439.49 513.24,443.18"/>
    </edge>
    <edge id=":100_1" function="internal">
        <lane id=":100_1_0" index="0" speed="8.13" length="23.58" shape="523.00,418.78 520.81,424.83 516.46,427.95 511.11,427.78 505.93,423.97"/>
    </edge>
    <edge id=":100_2" function="internal">
        <lane id=":100_2_0" index="0" speed="3.65" length="4.67" shape="523.00,418.78 522.09,419.90 521.25,420.22 520.49,419.75 519.81,418.48"/>
    </edge>
    <edge id=":100_3" function="internal">
        <lane id=":100_3_0" index="0" speed="5.47" length="9.75" shape="510.88,419.92 513.11,422.10 514.81,422.53 515.98,421.22 516.62,418.17"/>
    </edge>
    <edge id=":100_4" function="internal">
        <lane id=":100_4_0" index="0" speed="10.25" length="27.74" shape="510.88,419.92 516.09,427.08 518.80,433.42 518.14,438.82 513.24,443.18"/>
    </edge>
    <edge id=":100_5" function="internal">
        <lane id=":100_5_0" index="0" speed="3.65" length="4.67" shape="508.40,421.94 508.54,423.38 508.18,424.19 507.30,424.39 505.93,423.97"/>
    </edge>
    <edge id=":100_6" function="internal">
        <lane id=":100_6_0" index="0" speed="8.58" length="19.07" shape="511.76,440.34 513.38,438.28 512.95,434.87 510.47,430.10 505.93,423.97"/>
    </edge>
    <edge id=":100_7" function="internal">
        <lane id=":100_7_0" index="0" speed="13.57" length="23.99" shape="511.76,440.34 514.62,437.75 516.91,433.24 518.64,426.82 519.81,418.48"/>
    </edge>
    <edge id=":100_8" function="internal">
        <lane id=":100_8_0" index="0" speed="3.65" length="4.67" shape="511.76,440.34 513.20,440.49 513.92,441.02 513.94,441.91 513.24,443.18"/>
    </edge>
    <edge id=":1053_0" function="internal">
        <lane id=":1053_0_0" index="0" speed="13.89" length="24.50" shape="275.16,169.91 272.05,163.88 269.92,158.39 268.67,152.67 268.21,145.94"/>
        <lane id=":1053_0_1" index="1" speed="13.89" length="24.50" shape="277.96,168.36 274.91,162.57 272.92,157.60 271.81,152.40 271.41,145.90"/>
    </edge>
    <edge id=":1053_2" function="internal">
        <lane id=":1053_2_0" index="0" speed="8.15" length="20.16" shape="277.96,168.36 275.53,162.41 275.72,158.10 278.54,155.44 283.99,154.42"/>
    </edge>
    <edge id=":1053_3" function="internal">
        <lane id=":1053_3_0" index="0" speed="3.65" length="4.67" shape="277.96,168.36 278.08,166.92 278.59,166.19 279.48,166.15 280.76,166.81"/>
    </edge>
    <edge id=":1053_4" function="internal">
        <lane id=":1053_4_0" index="0" speed="5.72" length="9.19" shape="284.18,160.82 281.48,161.27 280.01,162.41 279.77,164.26 280.76,166.81"/>
    </edge>
    <edge id=":1053_5" function="internal">
        <lane id=":1053_5_0" index="0" speed="10.39" length="24.98" shape="284.18,160.82 277.26,160.06 272.30,157.33 269.28,152.62 268.21,145.94"/>
        <lane id=":1053_5_1" index="1" speed="9.29" length="19.76" shape="284.09,157.62 278.60,157.03 274.65,154.87 272.26,151.16 271.41,145.90"/>
    </edge>
    <edge id=":1053_7" function="internal">
        <lane id=":1053_7_0" index="0" speed="3.65" length="4.67" shape="284.09,157.62 282.86,156.86 282.44,156.07 282.82,155.26 283.99,154.42"/>
    </edge>
    <edge id=":1053_8" function="internal">
        <lane id=":1053_8_0" index="0" speed="7.38" length="12.06" shape="274.61,145.86 275.22,148.31 276.97,150.02 279.86,150.99 283.90,151.23"/>
    </edge>
    <edge id=":1053_9" function="internal">
        <lane id=":1053_9_0" index="0" speed="13.89" length="21.94" shape="274.61,145.86 275.26,150.63 276.80,156.57 278.79,162.39 280.76,166.81"/>
    </edge>
    <edge id=":1053_10" function="internal">
        <lane id=":1053_10_0" index="0" speed="3.65" length="4.67" shape="274.61,145.86 273.83,147.07 273.03,147.48 272.23,147.09 271.41,145.90"/>
    </edge>
    <edge id=":1059_0" function="internal">
        <lane id=":1059_0_0" index="0" speed="13.89" length="19.72" shape="316.55,209.45 315.44,213.07 314.79,217.25 314.39,222.41 314.02,228.94"/>
    </edge>
    <edge id=":1059_1" function="internal">
        <lane id=":1059_1_0" index="0" speed="11.36" length="3.86" shape="316.55,209.45 314.53,212.75"/>
    </edge>
    <edge id=":1059_2" function="internal">
        <lane id=":1059_2_0" index="0" speed="8.39" length="4.59" shape="316.55,209.45 314.27,213.44"/>
    </edge>
    <edge id=":1059_3" function="internal">
        <lane id=":1059_3_0" index="0" speed="3.65" length="1.44" shape="316.55,209.45 315.36,210.26"/>
    </edge>
    <edge id=":1059_16" function="internal">
        <lane id=":1059_16_0" index="0" speed="11.36" length="24.43" shape="314.53,212.75 312.82,215.54 307.64,219.04 301.02,219.95 292.97,218.27"/>
    </edge>
    <edge id=":1059_17" function="internal">
        <lane id=":1059_17_0" index="0" speed="8.39" length="19.23" shape="314.27,213.44 313.03,215.61 309.19,217.62 305.03,215.48 300.56,209.18"/>
    </edge>
    <edge id=":1059_18" function="internal">
        <lane id=":1059_18_0" index="0" speed="3.65" length="3.23" shape="315.36,210.26 314.47,210.33 313.88,209.66 313.59,208.24"/>
    </edge>
    <edge id=":1059_4" function="internal">
        <lane id=":1059_4_0" index="0" speed="6.82" length="15.21" shape="303.36,207.63 306.26,211.76 308.93,213.23 311.38,212.06 313.59,208.24"/>
    </edge>
    <edge id=":1059_5" function="internal">
        <lane id=":1059_5_0" index="0" speed="13.89" length="22.78" shape="303.36,207.63 305.63,211.37 308.22,216.09 310.25,221.85 310.82,228.75"/>
    </edge>
    <edge id=":1059_6" function="internal">
        <lane id=":1059_6_0" index="0" speed="7.42" length="19.75" shape="303.36,207.63 304.52,212.72 302.60,216.66 298.46,218.74 292.97,218.27"/>
    </edge>
    <edge id=":1059_7" function="internal">
        <lane id=":1059_7_0" index="0" speed="3.65" length="4.67" shape="303.36,207.63 303.24,209.07 302.74,209.81 301.84,209.85 300.56,209.18"/>
    </edge>
    <edge id=":1059_8" function="internal">
        <lane id=":1059_8_0" index="0" speed="5.46" length="9.90" shape="294.00,215.24 297.12,215.94 298.79,215.42 299.00,213.68 297.76,210.73"/>
    </edge>
    <edge id=":1059_9" function="internal">
        <lane id=":1059_9_0" index="0" speed="10.36" length="23.37" shape="294.00,215.24 300.73,216.67 306.24,215.98 310.53,213.17 313.59,208.24"/>
    </edge>
    <edge id=":1059_10" function="internal">
        <lane id=":1059_10_0" index="0" speed="11.18" length="22.84" shape="294.00,215.24 301.53,218.28 306.84,221.55 309.94,225.03 310.82,228.75"/>
    </edge>
    <edge id=":1059_11" function="internal">
        <lane id=":1059_11_0" index="0" speed="3.65" length="4.67" shape="294.00,215.24 294.88,216.38 295.00,217.27 294.36,217.90 292.97,218.27"/>
    </edge>
    <edge id=":1059_12" function="internal">
        <lane id=":1059_12_0" index="0" speed="10.17" length="18.75" shape="307.63,228.56 306.83,225.96 304.12,223.38 299.50,220.82 292.97,218.27"/>
    </edge>
    <edge id=":1059_13" function="internal">
        <lane id=":1059_13_0" index="0" speed="13.89" length="20.85" shape="307.63,228.56 307.33,224.65 306.02,220.28 303.75,215.20 300.56,209.18"/>
    </edge>
    <edge id=":1059_14" function="internal">
        <lane id=":1059_14_0" index="0" speed="13.89" length="21.22" shape="307.63,228.56 308.42,223.93 310.01,218.26 311.90,212.67 313.59,208.24"/>
    </edge>
    <edge id=":1059_15" function="internal">
        <lane id=":1059_15_0" index="0" speed="3.65" length="2.34" shape="307.63,228.56 308.50,227.41 309.32,227.05"/>
    </edge>
    <edge id=":1059_19" function="internal">
        <lane id=":1059_19_0" index="0" speed="3.65" length="2.34" shape="309.32,227.05 310.10,227.50 310.82,228.75"/>
    </edge>
    <edge id=":108_0" function="internal">
        <lane id=":108_0_0" index="0" speed="13.89" length="28.97" shape="235.51,415.31 232.66,422.44 228.50,428.13 223.03,432.37 216.26,435.17"/>
    </edge>
    <edge id=":108_1" function="internal">
        <lane id=":108_1_0" index="0" speed="8.13" length="21.05" shape="232.43,414.45 229.86,420.72 226.62,423.63 222.70,423.19 218.10,419.38"/>
    </edge>
    <edge id=":108_2" function="internal">
        <lane id=":108_2_0" index="0" speed="3.65" length="1.44" shape="232.43,414.45 231.33,415.39"/>
    </edge>
    <edge id=":108_10" function="internal">
        <lane id=":108_10_0" index="0" speed="3.65" length="3.23" shape="231.33,415.39 230.46,415.56 229.79,414.96 229.35,413.59"/>
    </edge>
    <edge id=":108_3" function="internal">
        <lane id=":108_3_0" index="0" speed="5.63" length="9.29" shape="222.86,415.10 225.00,416.93 226.79,417.29 228.24,416.18 229.35,413.59"/>
    </edge>
    <edge id=":108_4" function="internal">
        <lane id=":108_4_0" index="0" speed="9.36" length="7.22" shape="222.86,415.10 226.61,421.27"/>
        <lane id=":108_4_1" index="1" speed="8.30" length="2.45" shape="220.48,417.24 221.84,419.28"/>
    </edge>
    <edge id=":108_6" function="internal">
        <lane id=":108_6_0" index="0" speed="3.65" length="1.30" shape="220.48,417.24 220.67,418.53"/>
    </edge>
    <edge id=":108_11" function="internal">
        <lane id=":108_11_0" index="0" speed="9.36" length="19.53" shape="226.61,421.27 226.73,421.48 226.74,427.22 223.16,431.93 216.26,435.17"/>
    </edge>
    <edge id=":108_12" function="internal">
        <lane id=":108_12_0" index="0" speed="8.30" length="18.30" shape="221.84,419.28 223.78,422.19 224.03,426.32 221.24,429.62 215.40,432.09"/>
    </edge>
    <edge id=":108_13" function="internal">
        <lane id=":108_13_0" index="0" speed="3.65" length="3.37" shape="220.67,418.53 220.69,418.67 220.36,419.50 219.50,419.74 218.10,419.38"/>
    </edge>
    <edge id=":108_7" function="internal">
        <lane id=":108_7_0" index="0" speed="5.95" length="9.98" shape="214.53,429.01 216.98,427.88 218.00,426.25 217.58,424.13 215.73,421.52"/>
    </edge>
    <edge id=":108_8" function="internal">
        <lane id=":108_8_0" index="0" speed="12.88" length="22.40" shape="214.53,429.01 219.73,426.85 223.93,423.56 227.14,419.14 229.35,413.59"/>
    </edge>
    <edge id=":108_9" function="internal">
        <lane id=":108_9_0" index="0" speed="3.65" length="4.67" shape="214.53,429.01 215.90,429.46 216.50,430.12 216.34,431.00 215.40,432.09"/>
    </edge>
    <edge id=":1097_0" function="internal">
        <lane id=":1097_0_0" index="0" speed="13.89" length="17.10" shape="267.77,108.62 267.59,103.38 267.52,99.74 267.99,96.20 269.48,91.22"/>
        <lane id=":1097_0_1" index="1" speed="13.89" length="17.10" shape="270.97,108.58 270.79,103.67 270.70,100.26 271.12,96.93 272.51,92.27"/>
    </edge>
    <edge id=":1097_2" function="internal">
        <lane id=":1097_2_0" index="0" speed="7.40" length="4.77" shape="270.97,108.58 271.47,103.83"/>
    </edge>
    <edge id=":1097_3" function="internal">
        <lane id=":1097_3_0" index="0" speed="3.65" length="1.44" shape="270.97,108.58 271.76,107.37"/>
    </edge>
    <edge id=":1097_10" function="internal">
        <lane id=":1097_10_0" index="0" speed="7.40" length="13.91" shape="271.47,103.83 271.59,102.72 273.61,99.93 277.05,100.21 281.90,103.57"/>
    </edge>
    <edge id=":1097_11" function="internal">
        <lane id=":1097_11_0" index="0" speed="3.65" length="3.23" shape="271.76,107.37 272.55,106.96 273.36,107.35 274.17,108.54"/>
    </edge>
    <edge id=":1097_4" function="internal">
        <lane id=":1097_4_0" index="0" speed="5.50" length="9.60" shape="279.78,105.97 277.29,104.25 275.53,104.10 274.49,105.53 274.17,108.54"/>
    </edge>
    <edge id=":1097_5" function="internal">
        <lane id=":1097_5_0" index="0" speed="10.09" length="16.31" shape="279.78,105.97 275.87,102.07 273.36,98.49 272.24,95.22 272.51,92.27"/>
    </edge>
    <edge id=":1097_6" function="internal">
        <lane id=":1097_6_0" index="0" speed="3.65" length="4.67" shape="279.78,105.97 279.41,104.57 279.64,103.71 280.47,103.37 281.90,103.57"/>
    </edge>
    <edge id=":1097_7" function="internal">
        <lane id=":1097_7_0" index="0" speed="8.17" length="10.42" shape="278.56,94.37 278.14,96.74 278.56,99.06 279.81,101.34 281.90,103.57"/>
    </edge>
    <edge id=":1097_8" function="internal">
        <lane id=":1097_8_0" index="0" speed="13.89" length="15.42" shape="275.53,93.32 274.25,98.04 273.89,101.76 274.01,105.07 274.17,108.54"/>
    </edge>
    <edge id=":1097_9" function="internal">
        <lane id=":1097_9_0" index="0" speed="3.65" length="1.44" shape="275.53,93.32 274.38,94.19"/>
    </edge>
    <edge id=":1097_12" function="internal">
        <lane id=":1097_12_0" index="0" speed="3.65" length="3.23" shape="274.38,94.19 273.50,94.31 272.87,93.67 272.51,92.27"/>
    </edge>
    <edge id=":1116_0" function="internal">
        <lane id=":1116_0_0" index="0" speed="13.89" length="31.11" shape="203.61,682.15 200.81,687.05 195.97,693.78 189.96,700.72 183.64,706.22"/>
        <lane id=":1116_0_1" index="1" speed="13.89" length="31.11" shape="203.61,682.15 200.52,686.64 195.07,692.46 188.44,698.49 181.83,703.58"/>
    </edge>
    <edge id=":1116_2" function="internal">
        <lane id=":1116_2_0" index="0" speed="12.74" length="29.12" shape="203.61,682.15 200.33,686.35 194.83,688.96 187.13,690.01 177.21,689.48"/>
    </edge>
    <edge id=":1116_3" function="internal">
        <lane id=":1116_3_0" index="0" speed="7.60" length="17.99" shape="203.61,682.15 200.91,686.46 197.83,687.89 194.37,686.46 190.53,682.16"/>
    </edge>
    <edge id=":1116_4" function="internal">
        <lane id=":1116_4_0" index="0" speed="3.65" length="4.67" shape="203.61,682.15 202.40,682.93 201.51,682.98 200.93,682.29 200.68,680.87"/>
    </edge>
    <edge id=":1116_5" function="internal">
        <lane id=":1116_5_0" index="0" speed="5.91" length="10.31" shape="193.15,680.32 195.42,682.91 197.43,683.87 199.18,683.19 200.68,680.87"/>
    </edge>
    <edge id=":1116_6" function="internal">
        <lane id=":1116_6_0" index="0" speed="11.17" length="28.92" shape="193.15,680.32 195.20,685.70 194.00,691.37 189.54,697.33 181.83,703.58"/>
    </edge>
    <edge id=":1116_7" function="internal">
        <lane id=":1116_7_0" index="0" speed="8.31" length="23.96" shape="193.15,680.32 194.56,685.45 191.19,688.49 184.80,689.74 177.21,689.48"/>
    </edge>
    <edge id=":1116_8" function="internal">
        <lane id=":1116_8_0" index="0" speed="3.65" length="4.67" shape="193.15,680.32 193.19,681.77 192.76,682.55 191.88,682.69 190.53,682.16"/>
    </edge>
    <edge id=":1116_9" function="internal">
        <lane id=":1116_9_0" index="0" speed="7.10" length="17.09" shape="177.59,686.30 184.89,686.82 189.48,686.30 191.36,684.75 190.53,682.16"/>
    </edge>
    <edge id=":1116_10" function="internal">
        <lane id=":1116_10_0" index="0" speed="11.84" length="25.07" shape="177.59,686.30 186.41,686.85 193.20,686.12 197.96,684.13 200.68,680.87"/>
    </edge>
    <edge id=":1116_11" function="internal">
        <lane id=":1116_11_0" index="0" speed="8.04" length="23.68" shape="177.59,686.30 183.54,688.71 186.45,693.29 185.99,698.69 181.83,703.58"/>
    </edge>
    <edge id=":1116_12" function="internal">
        <lane id=":1116_12_0" index="0" speed="3.65" length="4.67" shape="177.59,686.30 178.69,687.24 178.99,688.08 178.50,688.83 177.21,689.48"/>
    </edge>
    <edge id=":1116_13" function="internal">
        <lane id=":1116_13_0" index="0" speed="5.46" length="9.97" shape="178.22,698.30 180.68,696.20 181.27,694.56 179.99,693.38 176.83,692.66"/>
    </edge>
    <edge id=":1116_14" function="internal">
        <lane id=":1116_14_0" index="0" speed="9.75" length="21.76" shape="178.22,698.30 184.97,693.19 189.28,688.80 191.13,685.12 190.53,682.16"/>
    </edge>
    <edge id=":1116_15" function="internal">
        <lane id=":1116_15_0" index="0" speed="13.89" length="28.98" shape="180.03,700.94 186.45,696.06 192.70,690.50 197.77,685.14 200.68,680.87"/>
    </edge>
    <edge id=":1116_16" function="internal">
        <lane id=":1116_16_0" index="0" speed="3.65" length="4.67" shape="180.03,700.94 181.47,700.92 182.25,701.36 182.37,702.24 181.83,703.58"/>
    </edge>
    <edge id=":1120_0" function="internal">
        <lane id=":1120_0_0" index="0" speed="13.89" length="24.54" shape="173.98,535.58 168.90,535.96 161.95,534.96 155.04,533.25 150.04,531.49"/>
    </edge>
    <edge id=":1120_1" function="internal">
        <lane id=":1120_1_0" index="0" speed="9.38" length="4.28" shape="173.98,535.58 169.72,535.97"/>
    </edge>
    <edge id=":1120_2" function="internal">
        <lane id=":1120_2_0" index="0" speed="3.65" length="1.44" shape="173.98,535.58 172.58,535.24"/>
    </edge>
    <edge id=":1120_10" function="internal">
        <lane id=":1120_10_0" index="0" speed="9.38" length="18.09" shape="169.72,535.97 169.58,535.99 165.95,533.71 163.09,528.74 161.00,521.08"/>
    </edge>
    <edge id=":1120_11" function="internal">
        <lane id=":1120_11_0" index="0" speed="3.65" length="3.23" shape="172.58,535.24 171.93,534.63 172.03,533.74 172.88,532.57"/>
    </edge>
    <edge id=":1120_3" function="internal">
        <lane id=":1120_3_0" index="0" speed="7.42" length="13.55" shape="164.14,520.48 165.41,525.22 167.11,528.31 169.23,529.76 171.78,529.57"/>
    </edge>
    <edge id=":1120_4" function="internal">
        <lane id=":1120_4_0" index="0" speed="8.82" length="25.75" shape="164.14,520.48 164.63,528.37 162.44,532.84 157.58,533.88 150.04,531.49"/>
    </edge>
    <edge id=":1120_5" function="internal">
        <lane id=":1120_5_0" index="0" speed="3.65" length="4.67" shape="164.14,520.48 163.58,521.81 162.87,522.35 162.01,522.11 161.00,521.08"/>
    </edge>
    <edge id=":1120_6" function="internal">
        <lane id=":1120_6_0" index="0" speed="5.58" length="9.37" shape="152.73,525.68 155.47,526.55 157.24,526.17 158.03,524.55 157.86,521.68"/>
    </edge>
    <edge id=":1120_7" function="internal">
        <lane id=":1120_7_0" index="0" speed="13.89" length="20.38" shape="152.73,525.68 158.14,528.48 162.14,530.41 166.19,530.95 171.78,529.57"/>
        <lane id=":1120_7_1" index="1" speed="13.89" length="22.75" shape="151.39,528.58 157.25,531.46 162.02,533.44 166.84,533.99 172.88,532.57"/>
    </edge>
    <edge id=":1120_9" function="internal">
        <lane id=":1120_9_0" index="0" speed="3.65" length="1.34" shape="151.39,528.58 152.09,529.73"/>
    </edge>
    <edge id=":1120_12" function="internal">
        <lane id=":1120_12_0" index="0" speed="3.65" length="3.33" shape="152.09,529.73 152.14,529.81 152.17,530.71 151.47,531.26 150.04,531.49"/>
    </edge>
    <edge id=":123_0" function="internal">
        <lane id=":123_0_0" index="0" speed="11.71" length="17.89" shape="325.87,345.94 319.49,345.18 314.47,345.15 310.81,345.86 308.51,347.32"/>
    </edge>
    <edge id=":123_1" function="internal">
        <lane id=":123_1_0" index="0" speed="8.86" length="22.35" shape="326.38,342.79 320.19,340.87 316.84,337.58 316.33,332.91 318.66,326.86"/>
    </edge>
    <edge id=":123_2" function="internal">
        <lane id=":123_2_0" index="0" speed="3.65" length="4.67" shape="326.38,342.79 325.32,341.81 325.05,340.95 325.58,340.23 326.89,339.63"/>
    </edge>
    <edge id=":123_3" function="internal">
        <lane id=":123_3_0" index="0" speed="5.88" length="9.11" shape="324.25,329.98 323.30,332.44 323.51,334.35 324.87,335.69 327.40,336.47"/>
        <lane id=":123_3_1" index="1" speed="7.52" length="15.73" shape="321.46,328.42 319.81,332.68 320.17,335.96 322.53,338.28 326.89,339.63"/>
    </edge>
    <edge id=":123_5" function="internal">
        <lane id=":123_5_0" index="0" speed="13.89" length="22.94" shape="321.46,328.42 317.85,334.53 314.41,339.74 311.25,344.02 308.51,347.32"/>
    </edge>
    <edge id=":123_6" function="internal">
        <lane id=":123_6_0" index="0" speed="3.65" length="1.44" shape="321.46,328.42 320.17,329.08"/>
    </edge>
    <edge id=":123_10" function="internal">
        <lane id=":123_10_0" index="0" speed="3.65" length="3.23" shape="320.17,329.08 319.28,329.04 318.77,328.30 318.66,326.86"/>
    </edge>
    <edge id=":123_7" function="internal">
        <lane id=":123_7_0" index="0" speed="13.89" length="22.23" shape="306.12,345.19 309.14,341.36 312.72,336.26 316.14,331.04 318.66,326.86"/>
    </edge>
    <edge id=":123_8" function="internal">
        <lane id=":123_8_0" index="0" speed="13.07" length="3.99" shape="306.12,345.19 309.18,342.63"/>
    </edge>
    <edge id=":123_9" function="internal">
        <lane id=":123_9_0" index="0" speed="3.65" length="1.44" shape="306.12,345.19 307.52,344.83"/>
    </edge>
    <edge id=":123_11" function="internal">
        <lane id=":123_11_0" index="0" speed="13.07" length="18.45" shape="309.18,342.63 310.02,341.92 314.78,339.90 320.40,339.14 326.89,339.63"/>
    </edge>
    <edge id=":123_12" function="internal">
        <lane id=":123_12_0" index="0" speed="3.65" length="3.23" shape="307.52,344.83 308.38,345.06 308.71,345.89 308.51,347.32"/>
    </edge>
    <edge id=":1237_0" function="internal">
        <lane id=":1237_0_0" index="0" speed="5.59" length="9.35" shape="700.89,448.48 700.19,445.71 698.94,444.40 697.13,444.55 694.77,446.17"/>
    </edge>
    <edge id=":1237_1" function="internal">
        <lane id=":1237_1_0" index="0" speed="13.89" length="26.91" shape="700.89,448.48 699.42,440.04 697.25,433.18 694.38,427.90 690.82,424.20"/>
    </edge>
    <edge id=":1237_2" function="internal">
        <lane id=":1237_2_0" index="0" speed="13.89" length="30.23" shape="700.89,448.48 698.30,418.23"/>
        <lane id=":1237_2_1" index="1" speed="13.89" length="30.23" shape="704.07,448.09 701.50,418.09"/>
    </edge>
    <edge id=":1237_4" function="internal">
        <lane id=":1237_4_0" index="0" speed="13.17" length="10.69" shape="704.07,448.09 704.10,440.08 704.92,437.53"/>
    </edge>
    <edge id=":1237_5" function="internal">
        <lane id=":1237_5_0" index="0" speed="8.98" length="9.64" shape="704.07,448.09 704.06,440.27 704.85,438.63"/>
    </edge>
    <edge id=":1237_6" function="internal">
        <lane id=":1237_6_0" index="0" speed="3.65" length="1.44" shape="704.07,448.09 704.72,446.80"/>
    </edge>
    <edge id=":1237_40" function="internal">
        <lane id=":1237_40_0" index="0" speed="13.17" length="19.32" shape="704.92,437.53 706.29,433.30 710.65,427.75 717.17,423.43"/>
    </edge>
    <edge id=":1237_41" function="internal">
        <lane id=":1237_41_0" index="0" speed="8.98" length="15.23" shape="704.85,438.63 706.34,435.55 710.88,433.93 717.71,435.40"/>
    </edge>
    <edge id=":1237_42" function="internal">
        <lane id=":1237_42_0" index="0" speed="3.65" length="3.23" shape="704.72,446.80 705.46,446.31 706.31,446.61 707.25,447.70"/>
    </edge>
    <edge id=":1237_7" function="internal">
        <lane id=":1237_7_0" index="0" speed="7.63" length="17.55" shape="716.57,438.40 711.88,437.41 708.76,438.64 707.21,442.07 707.25,447.70"/>
    </edge>
    <edge id=":1237_8" function="internal">
        <lane id=":1237_8_0" index="0" speed="12.85" length="24.26" shape="716.57,438.40 711.77,437.57 706.54,438.60 700.87,441.46 694.77,446.17"/>
    </edge>
    <edge id=":1237_9" function="internal">
        <lane id=":1237_9_0" index="0" speed="13.89" length="29.43" shape="716.57,438.40 711.14,435.85 703.45,431.75 695.88,427.42 690.82,424.20"/>
    </edge>
    <edge id=":1237_10" function="internal">
        <lane id=":1237_10_0" index="0" speed="12.98" length="7.74" shape="716.57,438.40 710.22,435.07 709.81,434.67"/>
    </edge>
    <edge id=":1237_11" function="internal">
        <lane id=":1237_11_0" index="0" speed="8.20" length="7.14" shape="716.57,438.40 710.27,435.05"/>
    </edge>
    <edge id=":1237_12" function="internal">
        <lane id=":1237_12_0" index="0" speed="3.65" length="1.44" shape="716.57,438.40 715.74,437.22"/>
    </edge>
    <edge id=":1237_43" function="internal">
        <lane id=":1237_43_0" index="0" speed="12.98" length="19.16" shape="709.81,434.67 705.59,430.58 702.68,424.92 701.50,418.09"/>
    </edge>
    <edge id=":1237_44" function="internal">
        <lane id=":1237_44_0" index="0" speed="8.20" length="16.42" shape="710.27,435.05 708.27,431.44 710.57,427.57 717.17,423.43"/>
    </edge>
    <edge id=":1237_45" function="internal">
        <lane id=":1237_45_0" index="0" speed="3.65" length="3.23" shape="715.74,437.22 715.65,436.33 716.30,435.73 717.71,435.40"/>
    </edge>
    <edge id=":1237_13" function="internal">
        <lane id=":1237_13_0" index="0" speed="5.49" length="9.65" shape="718.57,426.30 716.00,427.95 715.18,429.52 716.13,431.01 718.85,432.41"/>
    </edge>
    <edge id=":1237_14" function="internal">
        <lane id=":1237_14_0" index="0" speed="12.29" length="26.02" shape="718.57,426.30 712.93,430.05 709.16,434.86 707.27,440.75 707.25,447.70"/>
    </edge>
    <edge id=":1237_15" function="internal">