<?xml version='1.0' encoding='UTF-8'?>
<additional><parkingArea id="pa_-503" lane="-503_0" startPos="2.00" endPos="16.00" roadsideCapacity="6" friendlyPos="true" /><parkingArea id="pa_80" lane="80_0" startPos="2.00" endPos="16.00" roadsideCapacity="6" friendlyPos="true" /><parkingArea id="pa_-437" lane="-437_0" startPos="2.00" endPos="16.00" roadsideCapacity="6" friendlyPos="true" /><parkingArea id="pa_18" lane="18_0" startPos="2.00" endPos="16.00" roadsideCapacity="6" friendlyPos="true" /><parkingArea id="pa_-1103" lane="-1103_0" startPos="2.00" endPos="16.00" roadsideCapacity="6" friendlyPos="true" /><parkingArea id="pa_377" lane="377_0" startPos="2.00" endPos="16.00" roadsideCapacity="6" friendlyPos="true" /><parkingArea id="pa_506" lane="506_0" startPos="2.00" endPos="16.00" roadsideCapacity="2" friendlyPos="true" /><parkingArea id="pa_2211" lane="2211_0" startPos="2.00" endPos="16.00" roadsideCapacity="2" friendlyPos="true" /><parkingArea id="pa_-1119" lane="-1119_0" startPos="2.00" endPos="16.00" roadsideCapacity="2" friendlyPos="true" /><parkingArea id="pa_-7" lane="-7_0" startPos="2.00" endPos="16.00" roadsideCapacity="2" friendlyPos="true" /><parkingArea id="pa_2441" lane="2441_0" startPos="2.00" endPos="16.00" roadsideCapacity="2" friendlyPos="true" /><parkingArea id="pa_-2064" lane="-2064_0" startPos="2.00" endPos="16.00" roadsideCapacity="2" friendlyPos="true" /><parkingArea id="pa_97" lane="97_0" startPos="2.00" endPos="16.00" roadsideCapacity="2" friendlyPos="true" /><parkingArea id="pa_3489" lane="3489_0" startPos="2.00" endPos="16.00" roadsideCapacity="2" friendlyPos="true" /><parkingArea id="pa_2048" lane="2048_0" startPos="2.00" endPos="16.00" roadsideCapacity="2" friendlyPos="true" /><parkingArea id="pa_381" lane="381_0" startPos="2.00" endPos="16.00" roadsideCapacity="2" friendlyPos="true" /></additional>