<?xml version='1.0' encoding='UTF-8'?>
<routes>
  <vehicle id="0" depart="0.00" departLane="best" departSpeed="max">
    <route edges="-3503 -2322 -1943 -1102 -101 215 -247 2368" />
  </vehicle>
  <vehicle id="1" depart="1.70" departLane="best" departSpeed="max">
    <route edges="-2390 2378 -266 -249 -217 18 25 30 124 148 182 -385 389 435 -503" />
    <stop parkingArea="pa_-503" duration="100000" />
  </vehicle>
  <vehicle id="2" depart="3.40" departLane="0" departSpeed="max" departPos="stop">
    <route edges="506 -506 508 1121 1406" />
    <stop parkingArea="pa_506" duration="5" />
  </vehicle>
  <vehicle id="3" depart="5.10" departLane="best" departSpeed="max">
    <route edges="-2961 -2451 -182 190 2368" />
  </vehicle>
  <vehicle id="4" depart="6.80" departLane="best" departSpeed="max">
    <route edges="-2687 -2394 2378 -266 256 -198 -151 -132 -89 -80 80" />
    <stop parkingArea="pa_80" duration="100000" />
  </vehicle>
  <vehicle id="5" depart="8.50" departLane="0" departSpeed="max" departPos="stop">
    <route edges="2211 2400 -1273 -1060 -678 -484 -405 -370 -209 -165 -149 151 198 -256 266 -2378 2386" />
    <stop parkingArea="pa_2211" duration="5" />
  </vehicle>
  <vehicle id="6" depart="10.20" departLane="best" departSpeed="max">
    <route edges="-2402 2400 -1273 -1060 -678 -484 -405 -370 -209 -165 -137 133 -112 124 148 182 -385 389 445 2337 2427 2811 3253" />
  </vehicle>
  <vehicle id="7" depart="11.90" departLane="best" departSpeed="max">
    <route edges="-1322 18 25 30 124 148 182 -385 389 437 -437" />
    <stop parkingArea="pa_-437" duration="100000" />
  </vehicle>
  <vehicle id="8" depart="13.60" departLane="0" departSpeed="max" departPos="stop">
    <route edges="-1119 1119 -173 -109 -69 65 144 -124 -30 -25 -18 217 249 266 -2378 2386" />
    <stop parkingArea="pa_-1119" duration="5" />
  </vehicle>
  <vehicle id="9" depart="15.30" departLane="best" departSpeed="max">
    <route edges="-3212 -2801 -173 -109 -69 65 144 -124 -30 -25 -18 217 249 266 -2378 2386" />
  </vehicle>
  <vehicle id="10" depart="17.00" departLane="best" departSpeed="max">
    <route edges="-415 -370 -209 -165 -137 -91 89 -104 18" />
    <stop parkingArea="pa_18" duration="100000" />
  </vehicle>
  <vehicle id="11" depart="18.70" departLane="0" departSpeed="max" departPos="stop">
    <route edges="-7 9 215 375 389 445 2337 2427 2811 3265" />
    <stop parkingArea="pa_-7" duration="5" />
  </vehicle>
  <vehicle id="12" depart="20.40" departLane="best" departSpeed="max">
    <route edges="-3198 -2801 -173 -109 -69 65 144 -124 -30 -25 -18 217 249 266 -2378 2390" />
  </vehicle>
  <vehicle id="13" depart="22.10" departLane="best" departSpeed="max">
    <route edges="-3253 -2811 -2427 -2337 -445 -389 393 449 -1103" />
    <stop parkingArea="pa_-1103" duration="100000" />
  </vehicle>
  <vehicle id="14" depart="23.80" departLane="0" departSpeed="max" departPos="stop">
    <route edges="2441 -2813 -2439 -2337 -445 -389 385 -182 -148 -124 -30 -25 -18 217 249 266 -2378 2394 2687" />
    <stop parkingArea="pa_2441" duration="5" />
  </vehicle>
  <vehicle id="15" depart="25.50" departLane="best" departSpeed="max">
    <route edges="-2487 -221 -180 109 173 2801 3212" />
  </vehicle>
  <vehicle id="16" depart="27.20" departLane="best" departSpeed="max">
    <route edges="-2386 2378 -266 -249 -217 377" />
    <stop parkingArea="pa_377" duration="100000" />
  </vehicle>
  <vehicle id="17" depart="28.90" departLane="0" departSpeed="max" departPos="stop">
    <route edges="-2064 -1526 -1238 1242 1538" />
    <stop parkingArea="pa_-2064" duration="5" />
  </vehicle>
  <vehicle id="18" depart="30.60" departLane="best" departSpeed="max">
    <route edges="-2406 2400 -1273 -1060 -678 -484 -405 -370 -209 -165 -149 151 198 -256 266 -2378 2377 -1536 1538" />
  </vehicle>
  <vehicle id="19" depart="32.30" departLane="best" departSpeed="max">
    <route edges="-2487 -385 389 435 -503" />
    <stop parkingArea="pa_-503" duration="100000" />
  </vehicle>
  <vehicle id="20" depart="34.00" departLane="0" departSpeed="max" departPos="stop">
    <route edges="97 -133 137 165 209 370 405 484 678 1060 1273 -2400 2406" />
    <stop parkingArea="pa_97" duration="5" />
  </vehicle>
  <vehicle id="21" depart="35.70" departLane="best" departSpeed="max">
    <route edges="-3212 -2801 -173 -109 180 245 389 445 2337 2427 2811 3253" />
  </vehicle>
  <vehicle id="22" depart="37.40" departLane="best" departSpeed="max">
    <route edges="-1406 1332 -173 -109 -69 65 144 -124 -30 34 80" />
    <stop parkingArea="pa_80" duration="100000" />
  </vehicle>
  <vehicle id="23" depart="39.10" departLane="0" departSpeed="max" departPos="stop">
    <route edges="3489 -3184 -2322 -1943 -1102 -101 215 -247 2368" />
    <stop parkingArea="pa_3489" duration="5" />
  </vehicle>
  <vehicle id="24" depart="40.80" departLane="best" departSpeed="max">
    <route edges="-2368 -190 -148 -144 -65 69 109 173 -1332 1406" />
  </vehicle>
  <vehicle id="25" depart="42.50" departLane="best" departSpeed="max">
    <route edges="-1406 -1121 -508 506 -505 503 510 -437" />
    <stop parkingArea="pa_-437" duration="100000" />
  </vehicle>
  <vehicle id="26" depart="44.20" departLane="0" departSpeed="max" departPos="stop">
    <route edges="2048 -1331 -1118 -828 -505 503 -435 445 2337 2427 2811 3253" />
    <stop parkingArea="pa_2048" duration="5" />
  </vehicle>
  <vehicle id="27" depart="45.90" departLane="best" departSpeed="max">
    <route edges="-3503 -2322 -1943 -1102 1103 -449 -393 389 445 2337 2427 2811 3253" />
  </vehicle>
  <vehicle id="28" depart="47.60" departLane="best" departSpeed="max">
    <route edges="-3253 -2811 -2427 -2337 -445 -389 385 -182 -148 -124 -30 -25 -18 18" />
    <stop parkingArea="pa_18" duration="100000" />
  </vehicle>
  <vehicle id="29" depart="49.30" departLane="0" departSpeed="max" departPos="stop">
    <route edges="381 -231 -180 109 173 2801 3198" />
    <stop parkingArea="pa_381" duration="5" />
  </vehicle>
  <vehicle id="30" depart="51.00" departLane="best" departSpeed="max">
    <route edges="-1322 217 249 266 -2378 2377 -1536 1538" />
  </vehicle>
  <vehicle id="31" depart="52.70" departLane="best" departSpeed="max">
    <route edges="-2687 -2394 2378 -266 -249 -217 -3 9 101 1103 -449 449 -1103" />
    <stop parkingArea="pa_-1103" duration="100000" />
  </vehicle>
  <vehicle id="32" depart="54.40" departLane="best" departSpeed="max">
    <route edges="-2406 2400 -1273 -1060 -678 -484 -405 -370 -209 -165 -149 151 198 -256 266 -2378 2390" />
  </vehicle>
  <vehicle id="33" depart="56.10" departLane="best" departSpeed="max">
    <route edges="-415 -370 -209 -165 -137 -91 89 -104 377" />
    <stop parkingArea="pa_377" duration="100000" />
  </vehicle>
  <vehicle id="34" depart="57.80" departLane="best" departSpeed="max">
    <route edges="-3240 -2801 -173 -109 -69 65 144 -124 112 -133 137 165 209 370 405 484 678 1060 1273 -2400 2402" />
  </vehicle>
  <vehicle id="35" depart="59.50" departLane="best" departSpeed="max">
    <route edges="-2386 2378 -266 -249 -217 18 25 30 124 148 182 -385 389 435 -503" />
    <stop parkingArea="pa_-503" duration="100000" />
  </vehicle>
  <vehicle id="36" depart="61.20" departLane="best" departSpeed="max">
    <route edges="-2390 2378 -266 -249 -217 18 25 30 124 -144 -65 69 109 173 2801 3192" />
  </vehicle>
  <vehicle id="37" depart="62.90" departLane="best" departSpeed="max">
    <route edges="-3503 -2322 -1943 -705 -17 7 25 34 80" />
    <stop parkingArea="pa_80" duration="100000" />
  </vehicle>
  <vehicle id="38" depart="64.60" departLane="best" departSpeed="max">
    <route edges="-1322 18 25 30 124 -144 -65 69 109 173 2801 3192" />
  </vehicle>
  <vehicle id="39" depart="66.30" departLane="best" departSpeed="max">
    <route edges="-3240 -2801 -1119 -508 506 -505 503 510 -437" />
    <stop parkingArea="pa_-437" duration="100000" />
  </vehicle>
  <vehicle id="40" depart="68.00" departLane="best" departSpeed="max">
    <route edges="-2487 -221 -180 109 173 2801 3212" />
  </vehicle>
  <vehicle id="41" depart="69.70" departLane="best" departSpeed="max">
    <route edges="-2368 -190 -148 -124 -30 -25 -18 18" />
    <stop parkingArea="pa_18" duration="100000" />
  </vehicle>
  <vehicle id="42" depart="71.40" departLane="best" departSpeed="max">
    <route edges="-2687 -2394 2378 -266 -249 -217 18 25 30 124 -144 -65 69 109 173 2801 3198" />
  </vehicle>
  <vehicle id="43" depart="73.10" departLane="best" departSpeed="max">
    <route edges="-1322 -3 9 101 1103 -449 449 -1103" />
    <stop parkingArea="pa_-1103" duration="100000" />
  </vehicle>
  <vehicle id="44" depart="74.80" departLane="best" departSpeed="max">
    <route edges="-415 -370 -209 -165 -137 133 -112 124 148 182 -385 389 445 2337 2427 2811 3253" />
  </vehicle>
  <vehicle id="45" depart="76.50" departLane="best" departSpeed="max">
    <route edges="-3265 -2811 -2427 -2337 -445 -389 385 -182 -148 -124 -30 -25 -18 377" />
    <stop parkingArea="pa_377" duration="100000" />
  </vehicle>
  <vehicle id="46" depart="78.20" departLane="best" departSpeed="max">
    <route edges="-3533 -2322 -1943 -705 -17 3 104 -89 91 137 165 209 370 415" />
  </vehicle>
  <vehicle id="47" depart="79.90" departLane="best" departSpeed="max">
    <route edges="-2687 -2394 2378 -266 -249 -217 18 25 30 124 148 182 -385 389 435 -503" />
    <stop parkingArea="pa_-503" duration="100000" />
  </vehicle>
  <vehicle id="48" depart="81.60" departLane="best" departSpeed="max">
    <route edges="-3240 -2801 -173 -109 -69 65 144 -124 -30 -25 -18 217 249 266 -2378 2386" />
  </vehicle>
  <vehicle id="49" depart="83.30" departLane="best" departSpeed="max">
    <route edges="-3240 -2801 -173 -109 -69 65 144 -124 -30 34 80" />
    <stop parkingArea="pa_80" duration="100000" />
  </vehicle>
  <vehicle id="50" depart="85.00" departLane="best" departSpeed="max">
    <route edges="-2402 2400 -1273 -1060 -678 -484 -405 -370 -209 -165 -149 151 198 -256 266 -2378 2394 2687" />
  </vehicle>
  <vehicle id="51" depart="86.70" departLane="best" departSpeed="max">
    <route edges="-3240 -2801 -1119 -508 506 -505 503 510 -437" />
    <stop parkingArea="pa_-437" duration="100000" />
  </vehicle>
  <vehicle id="52" depart="88.40" departLane="best" departSpeed="max">
    <route edges="-2402 2400 -1273 -1060 -678 -484 -405 -370 -209 -165 -137 133 -112 124 -144 -65 69 109 173 -1332 1406" />
  </vehicle>
  <vehicle id="53" depart="90.10" departLane="best" departSpeed="max">
    <route edges="-3212 -2801 -173 -109 -69 65 144 -124 -30 -25 -18 18" />
    <stop parkingArea="pa_18" duration="100000" />
  </vehicle>
  <vehicle id="54" depart="91.80" departLane="best" departSpeed="max">
    <route edges="-1406 1332 -173 -109 180 221 2451 2961" />
  </vehicle>
  <vehicle id="55" depart="93.50" departLane="best" departSpeed="max">
    <route edges="-2961 -2451 -385 393 449 -1103" />
    <stop parkingArea="pa_-1103" duration="100000" />
  </vehicle>
  <vehicle id="56" depart="95.20" departLane="best" departSpeed="max">
    <route edges="-3265 -2811 -2427 -2337 -445 -389 -245 -180 109 173 2801 3240" />
  </vehicle>
  <vehicle id="57" depart="96.90" departLane="best" departSpeed="max">
    <route edges="-2390 2378 -266 -249 -217 377" />
    <stop parkingArea="pa_377" duration="100000" />
  </vehicle>
  <vehicle id="58" depart="98.60" departLane="best" departSpeed="max">
    <route edges="-2390 2378 -266 -249 -217 18 25 30 124 -144 -65 69 109 173 -1332 1406" />
  </vehicle>
  <vehicle id="59" depart="100.30" departLane="best" departSpeed="max">
    <route edges="-1406 -1121 -508 506 -505 503 -503" />
    <stop parkingArea="pa_-503" duration="100000" />
  </vehicle>
  <vehicle id="60" depart="102.00" departLane="best" departSpeed="max">
    <route edges="-3246 -2050 -1329 -1118 -828 -505 503 -435 -389 393 449 -1103 1102 1943 -2088 -1258 1242 1538" />
  </vehicle>
  <vehicle id="61" depart="103.70" departLane="best" departSpeed="max">
    <route edges="-2487 -182 -148 -124 -30 34 80" />
    <stop parkingArea="pa_80" duration="100000" />
  </vehicle>
  <vehicle id="62" depart="105.40" departLane="best" departSpeed="max">
    <route edges="-3477 -479 -202 198 -256 266 -2378 2377 -1536 1538" />
  </vehicle>
  <vehicle id="63" depart="107.10" departLane="best" departSpeed="max">
    <route edges="-3240 -2801 -1119 -508 506 -505 503 510 -437" />
    <stop parkingArea="pa_-437" duration="100000" />
  </vehicle>
  <vehicle id="64" depart="108.80" departLane="best" departSpeed="max">
    <route edges="-3533 -2322 -1943 -705 -17 3 104 -89 91 137 165 209 370 405 484 678 1060 1273 -2400 2406" />
  </vehicle>
  <vehicle id="65" depart="110.50" departLane="best" departSpeed="max">
    <route edges="-2368 -190 -148 -124 -30 -25 -18 18" />
    <stop parkingArea="pa_18" duration="100000" />
  </vehicle>
  <vehicle id="66" depart="112.20" departLane="best" departSpeed="max">
    <route edges="-3192 -2801 -173 -109 -69 65 144 148 190 2368" />
  </vehicle>
  <vehicle id="67" depart="113.90" departLane="best" departSpeed="max">
    <route edges="-1538 -1242 1258 2088 -1943 -1102 1103 -449 449 -1103" />
    <stop parkingArea="pa_-1103" duration="100000" />
  </vehicle>
  <vehicle id="68" depart="115.60" departLane="best" departSpeed="max">
    <route edges="-3265 -2811 -2427 -2337 -445 -389 385 -182 -148 -124 112 -133 137 165 209 370 405 484 678 1060 1273 -2400 2406" />
  </vehicle>
  <vehicle id="69" depart="117.30" departLane="best" departSpeed="max">
    <route edges="-3192 -2801 -173 -109 -69 65 144 -124 -30 -25 -18 377" />
    <stop parkingArea="pa_377" duration="100000" />
  </vehicle>
  <vehicle id="70" depart="119.00" departLane="best" departSpeed="max">
    <route edges="-3265 -2811 -2427 -2337 -445 -389 385 -182 -148 -124 112 -133 -91 89 132 151 202 479 3477" />
  </vehicle>
  <vehicle id="71" depart="120.70" departLane="best" departSpeed="max">
    <route edges="-3240 -2801 -1119 -508 506 -505 503 -503" />
    <stop parkingArea="pa_-503" duration="100000" />
  </vehicle>
  <vehicle id="72" depart="122.40" departLane="best" departSpeed="max">
    <route edges="-1406 1332 -173 -109 -69 65 144 -124 112 -133 -91 89 132 151 202 479 3477" />
  </vehicle>
  <vehicle id="73" depart="124.10" departLane="best" departSpeed="max">
    <route edges="-1538 1536 -2377 2378 -266 256 -198 -151 -132 -89 -80 80" />
    <stop parkingArea="pa_80" duration="100000" />
  </vehicle>
  <vehicle id="74" depart="125.80" departLane="best" departSpeed="max">
    <route edges="-1538 1536 -2377 2378 -266 -249 -217 18 25 30 124 -144 -65 69 109 173 2801 3198" />
  </vehicle>
  <vehicle id="75" depart="127.50" departLane="best" departSpeed="max">
    <route edges="-3265 -2811 -2427 -2337 -445 437 -437" />
    <stop parkingArea="pa_-437" duration="100000" />
  </vehicle>
  <vehicle id="76" depart="129.20" departLane="best" departSpeed="max">
    <route edges="-3533 -2322 -1943 -1102 1103 -449 -393 389 445 2337 2427 2811 3265" />
  </vehicle>
  <vehicle id="77" depart="130.90" departLane="best" departSpeed="max">
    <route edges="-3503 -2322 -1943 -705 -17 3 18" />
    <stop parkingArea="pa_18" duration="100000" />
  </vehicle>
  <vehicle id="78" depart="132.60" departLane="best" departSpeed="max">
    <route edges="-3265 -2811 -2427 -2337 -445 435 -503 505 828 1118 1329 2050 3246" />
  </vehicle>
  <vehicle id="79" depart="134.30" departLane="best" departSpeed="max">
    <route edges="-3533 -2322 -1943 -1102 1103 -449 449 -1103" />
    <stop parkingArea="pa_-1103" duration="100000" />
  </vehicle>
  <vehicle id="80" depart="136.00" departLane="best" departSpeed="max">
    <route edges="-2402 2400 -1273 -1060 -678 -484 -405 -370 -209 -165 -137 -91 89 -104 -3 17 705 1943 2322 3533" />
  </vehicle>
  <vehicle id="81" depart="137.70" departLane="best" departSpeed="max">
    <route edges="-415 -370 -209 -165 -137 133 -112 124 148 182 2451 2961" />
  </vehicle>
  <vehicle id="82" depart="139.40" departLane="best" departSpeed="max">
    <route edges="-2406 2400 -1273 -1060 -678 -484 -405 -370 -209 -165 -137 133 -112 124 148 182 2487" />
  </vehicle>
  <vehicle id="83" depart="141.10" departLane="best" departSpeed="max">
    <route edges="-3192 -2801 -173 -109 -69 65 144 -124 -30 -25 -18 217 249 266 -2378 2386" />
  </vehicle>
  <vehicle id="84" depart="142.80" departLane="best" departSpeed="max">
    <route edges="-2687 -2394 2378 -266 -249 -217 18 25 30 124 -144 -65 69 109 173 2801 3212" />
  </vehicle>
  <vehicle id="85" depart="144.50" departLane="best" departSpeed="max">
    <route edges="-2961 -2451 -182 -148 -124 -30 -25 -18 217 249 266 -2378 2377 -1536 1538" />
  </vehicle>
  <vehicle id="86" depart="146.20" departLane="best" departSpeed="max">
    <route edges="-1322 18 25 30 124 -144 -65 69 109 173 2801 3212" />
  </vehicle>
  <vehicle id="87" depart="147.90" departLane="best" departSpeed="max">
    <route edges="-3477 -479 -202 -151 -132 -89 91 133 -112 124 148 182 -385 389 445 2337 2427 2811 3265" />
  </vehicle>
  <vehicle id="88" depart="149.60" departLane="best" departSpeed="max">
    <route edges="-2368 247 -215 101 1102 1943 -2088 -1258 1242 1538" />
  </vehicle>
  <vehicle id="89" depart="151.30" departLane="best" departSpeed="max">
    <route edges="-3253 -2811 -2427 -2337 -445 -389 385 -182 -148 -124 112 -133 137 165 209 370 405 484 678 1060 1273 -2400 2402" />
  </vehicle>
  <vehicle id="90" depart="153.00" departLane="best" departSpeed="max">
    <route edges="-3246 -2050 -1329 -1118 -828 -505 -425 -384 -231 221 2487" />
  </vehicle>
  <vehicle id="91" depart="154.70" departLane="best" departSpeed="max">
    <route edges="-2386 2378 -266 -249 -217 18 25 30 124 -144 -65 69 109 173 2801 3188" />
  </vehicle>
  <vehicle id="92" depart="156.40" departLane="best" departSpeed="max">
    <route edges="-1538 1536 -2377 2378 -266 256 -198 -151 149 165 209 370 405 484 678 1060 1273 -2400 2406" />
  </vehicle>
  <vehicle id="93" depart="158.10" departLane="best" departSpeed="max">
    <route edges="-3188 -2801 -173 -109 -69 65 144 -124 -30 -25 -18 217 249 266 -2378 2394 2687" />
  </vehicle>
  <vehicle id="94" depart="159.80" departLane="best" departSpeed="max">
    <route edges="-2390 2378 -266 -249 -217 18 25 30 124 -144 -65 69 109 173 2801 3212" />
  </vehicle>
  <vehicle id="95" depart="161.50" departLane="best" departSpeed="max">
    <route edges="-3253 -2811 -2427 -2337 -445 -389 385 -182 -148 -124 112 -133 137 165 209 370 415" />
  </vehicle>
  <vehicle id="96" depart="163.20" departLane="best" departSpeed="max">
    <route edges="-2687 -2394 2378 -266 256 -198 202 479 3477" />
  </vehicle>
  <vehicle id="97" depart="164.90" departLane="best" departSpeed="max">
    <route edges="-3503 -2322 -1943 -1102 1103 -449 -393 389 435 -503 505 828 1118 1329 2050 3246" />
  </vehicle>
  <vehicle id="98" depart="166.60" departLane="best" departSpeed="max">
    <route edges="-1322 -3 17 705 1943 2322 3533" />
  </vehicle>
  <vehicle id="99" depart="168.30" departLane="best" departSpeed="max">
    <route edges="-3253 -2811 -2427 -2337 -445 -389 385 -182 -148 -124 -30 -25 -18 217 249 266 -2378 2394 2687" />
  </vehicle>
  <vehicle id="100" depart="170.00" departLane="best" departSpeed="max">
    <route edges="-3533 -2322 -1943 -1102 -101 215 -247 2368" />
  </vehicle>
  <vehicle id="101" depart="171.70" departLane="best" departSpeed="max">
    <route edges="-2386 2378 -266 -249 -217 18 25 30 124 148 182 2487" />
  </vehicle>
  <vehicle id="102" depart="173.40" departLane="best" departSpeed="max">
    <route edges="-3253 -2811 -2427 -2337 -445 -389 385 -182 -148 -124 -30 -25 -18 217 249 266 -2378 2386" />
  </vehicle>
  <vehicle id="103" depart="175.10" departLane="best" departSpeed="max">
    <route edges="-2487 -182 -148 -124 -30 -25 -18 217 249 266 -2378 2394 2687" />
  </vehicle>
  <vehicle id="104" depart="176.80" departLane="best" departSpeed="max">
    <route edges="-3477 -479 463 -496 209 370 405 484 678 1060 1273 -2400 2402" />
  </vehicle>
  <vehicle id="105" depart="178.50" departLane="best" departSpeed="max">
    <route edges="-415 -370 -209 -165 -137 133 -112 124 148 182 2451 2961" />
  </vehicle>
  <vehicle id="106" depart="180.20" departLane="best" departSpeed="max">
    <route edges="-2402 2400 -1273 -1060 -678 -484 -405 -370 -209 -165 -137 -91 89 -104 -3 17 705 1943 2322 3533" />
  </vehicle>
  <vehicle id="107" depart="181.90" departLane="best" departSpeed="max">
    <route edges="-3503 -2322 -1943 -705 -17 7 25 30 124 148 182 2487" />
  </vehicle>
  <vehicle id="108" depart="183.60" departLane="best" departSpeed="max">
    <route edges="-3246 -2050 -1329 -1118 -828 -506 508 1119 2801 3240" />
  </vehicle>
  <vehicle id="109" depart="185.30" departLane="best" departSpeed="max">
    <route edges="-2487 -221 -180 109 173 -1332 1406" />
  </vehicle>
  <vehicle id="110" depart="187.00" departLane="best" departSpeed="max">
    <route edges="-1538 -1242 1258 3489 -3184 3503" />
  </vehicle>
  <vehicle id="111" depart="188.70" departLane="best" departSpeed="max">
    <route edges="-3198 -2801 -173 -109 180 221 2487" />
  </vehicle>
  <vehicle id="112" depart="190.40" departLane="best" departSpeed="max">
    <route edges="-1406 1332 -173 -109 -69 65 144 -124 -30 -25 -18 1322" />
  </vehicle>
  <vehicle id="113" depart="192.10" departLane="best" departSpeed="max">
    <route edges="-2961 -2451 -182 -148 -124 -30 -25 -18 217 249 266 -2378 2386" />
  </vehicle>
  <vehicle id="114" depart="193.80" departLane="best" departSpeed="max">
    <route edges="-3503 -2322 -1943 -705 -17 7 25 30 124 148 182 2487" />
  </vehicle>
  <vehicle id="115" depart="195.50" departLane="best" departSpeed="max">
    <route edges="-2390 2378 -266 -249 -217 18 25 30 124 -144 -65 69 109 173 2801 3212" />
  </vehicle>
  <vehicle id="116" depart="197.20" departLane="best" departSpeed="max">
    <route edges="-3253 -2811 -2427 -2337 -445 -389 385 -182 -148 -124 112 -133 137 165 209 370 415" />
  </vehicle>
  <vehicle id="117" depart="198.90" departLane="best" departSpeed="max">
    <route edges="-3198 -2801 -173 -109 180 245 389 445 2337 2427 2811 3253" />
  </vehicle>
  <vehicle id="118" depart="200.60" departLane="best" departSpeed="max">
    <route edges="-1322 18 25 30 124 148 190 2368" />
  </vehicle>
  <vehicle id="119" depart="202.30" departLane="best" departSpeed="max">
    <route edges="-1538 1536 -2377 2378 -266 256 -198 -151 149 165 209 370 415" />
  </vehicle>
  <vehicle id="120" depart="204.00" departLane="best" departSpeed="max">
    <route edges="-2386 2378 -266 -249 -217 18 25 30 124 148 182 -385 389 445 2337 2427 2811 3253" />
  </vehicle>
  <vehicle id="121" depart="205.70" departLane="best" departSpeed="max">
    <route edges="-2386 2378 -266 -249 -217 18 25 30 124 -144 -65 69 109 173 2801 3198" />
  </vehicle>
  <vehicle id="122" depart="207.40" departLane="best" departSpeed="max">
    <route edges="-2386 2378 -266 -249 -217 18 25 30 124 -144 -65 69 109 173 -1332 1406" />
  </vehicle>
  <vehicle id="123" depart="209.10" departLane="best" departSpeed="max">
    <route edges="-2687 -2394 2378 -266 -249 -217 18 25 30 124 -144 -65 69 109 173 2801 3188" />
  </vehicle>
  <vehicle id="124" depart="210.80" departLane="best" departSpeed="max">
    <route edges="-2402 2400 -1273 -1060 -678 -484 -405 -370 -209 -165 -137 -91 89 -104 -3 17 705 1943 2322 3533" />
  </vehicle>
  <vehicle id="125" depart="212.50" departLane="best" departSpeed="max">
    <route edges="-2406 2400 -1273 -1060 -678 -484 -405 -370 -209 -165 -137 -91 89 -104 -3 17 705 1943 2322 3533" />
  </vehicle>
  <vehicle id="126" depart="214.20" departLane="best" departSpeed="max">
    <route edges="-2368 -190 -148 -144 -65 69 109 173 2801 3188" />
  </vehicle>
  <vehicle id="127" depart="215.90" departLane="best" departSpeed="max">
    <route edges="-3253 -2811 -2427 -2337 -445 -389 -245 -180 109 173 2801 3198" />
  </vehicle>
  <vehicle id="128" depart="217.60" departLane="best" departSpeed="max">
    <route edges="-3477 -479 -202 198 -256 266 -2378 2386" />
  </vehicle>
  <vehicle id="129" depart="219.30" departLane="best" departSpeed="max">
    <route edges="-2406 2400 -1273 -1060 -678 -484 -405 -370 -209 -165 -149 151 198 -256 266 -2378 2390" />
  </vehicle>
  <vehicle id="130" depart="221.00" departLane="best" departSpeed="max">
    <route edges="-2390 2378 -266 -249 -217 18 25 30 124 -144 -65 69 109 173 2801 3198" />
  </vehicle>
  <vehicle id="131" depart="222.70" departLane="best" departSpeed="max">
    <route edges="-1322 217 249 266 -2378 2390" />
  </vehicle>
  <vehicle id="132" depart="224.40" departLane="best" departSpeed="max">
    <route edges="-2961 -2451 -221 -180 109 173 2801 3198" />
  </vehicle>
  <vehicle id="133" depart="226.10" departLane="best" departSpeed="max">
    <route edges="-3533 -2322 -1943 -705 -17 3 104 -89 91 137 165 209 370 405 484 678 1060 1273 -2400 2406" />
  </vehicle>
  <vehicle id="134" depart="227.80" departLane="best" departSpeed="max">
    <route edges="-2487 -182 -148 -124 -30 -25 -18 217 249 266 -2378 2390" />
  </vehicle>
  <vehicle id="135" depart="229.50" departLane="best" departSpeed="max">
    <route edges="-415 -370 -209 -165 -137 133 -112 124 148 190 2368" />
  </vehicle>
  <vehicle id="136" depart="231.20" departLane="best" departSpeed="max">
    <route edges="-3240 -2801 -173 -109 -69 65 144 -124 112 -133 137 165 209 370 405 484 678 1060 1273 -2400 2406" />
  </vehicle>
  <vehicle id="137" depart="232.90" departLane="best" departSpeed="max">
    <route edges="-2402 2400 -1273 -1060 -678 -484 -405 -370 -209 -165 -137 133 -112 124 -144 -65 69 109 173 2801 3212" />
  </vehicle>
  <vehicle id="138" depart="234.60" departLane="best" departSpeed="max">
    <route edges="-3188 -2801 -173 -109 -69 65 144 -124 -30 -25 -18 217 249 266 -2378 2394 2687" />
  </vehicle>
  <vehicle id="139" depart="236.30" departLane="best" departSpeed="max">
    <route edges="-1322 -3 17 705 1943 2322 3533" />
  </vehicle>
  <vehicle id="140" depart="238.00" departLane="best" departSpeed="max">
    <route edges="-2402 2400 -1273 -1060 -678 -484 -405 -370 -209 -165 -137 133 -112 124 -144 -65 69 109 173 2801 3192" />
  </vehicle>
  <vehicle id="141" depart="239.70" departLane="best" departSpeed="max">
    <route edges="-1538 1536 -2377 2378 -266 -249 -217 18 25 30 124 148 182 2487" />
  </vehicle>
  <vehicle id="142" depart="241.40" departLane="best" departSpeed="max">
    <route edges="-3188 -2801 -173 -109 -69 65 144 -124 -30 -25 -7 17 705 1943 2322 3503" />
  </vehicle>
  <vehicle id="143" depart="243.10" departLane="best" departSpeed="max">
    <route edges="-3246 -2050 -1329 -1118 -828 -506 508 1119 2801 3192" />
  </vehicle>
  <vehicle id="144" depart="244.80" departLane="best" departSpeed="max">
    <route edges="-3533 -2322 -1943 -1102 1103 -449 -393 389 445 2337 2427 2811 3253" />
  </vehicle>
  <vehicle id="145" depart="246.50" departLane="best" departSpeed="max">
    <route edges="-2961 -2451 -182 -148 -124 -30 -25 -18 1322" />
  </vehicle>
  <vehicle id="146" depart="248.20" departLane="best" departSpeed="max">
    <route edges="-2390 2378 -266 -249 -217 18 25 30 124 148 182 -385 389 445 2337 2427 2811 3265" />
  </vehicle>
  <vehicle id="147" depart="249.90" departLane="best" departSpeed="max">
    <route edges="-2487 -221 -180 109 173 -1332 1406" />
  </vehicle>
  <vehicle id="148" depart="251.60" departLane="best" departSpeed="max">
    <route edges="-2368 -190 -148 -124 112 -133 -91 89 132 151 202 479 3477" />
  </vehicle>
  <vehicle id="149" depart="253.30" departLane="best" departSpeed="max">
    <route edges="-2961 -2451 -221 -180 109 173 2801 3198" />
  </vehicle>
  <vehicle id="150" depart="255.00" departLane="best" departSpeed="max">
    <route edges="-3477 -479 -202 -151 -132 -89 91 133 -112 124 148 182 -221 231 384 425 505 828 1118 1329 2050 3246" />
  </vehicle>
  <vehicle id="151" depart="256.70" departLane="best" departSpeed="max">
    <route edges="-2368 -190 -148 -144 -65 69 109 173 2801 3192" />
  </vehicle>
  <vehicle id="152" depart="258.40" departLane="best" departSpeed="max">
    <route edges="-3265 -2811 -2427 -2337 -445 -389 385 -182 -148 -124 112 -133 137 165 209 370 405 484 678 1060 1273 -2400 2402" />
  </vehicle>
  <vehicle id="153" depart="260.10" departLane="best" departSpeed="max">
    <route edges="-2487 -221 -180 109 173 -1332 1406" />
  </vehicle>
  <vehicle id="154" depart="261.80" departLane="best" departSpeed="max">
    <route edges="-415 -370 -209 -165 -137 133 -112 124 -144 -65 69 109 173 2801 3198" />
  </vehicle>
  <vehicle id="155" depart="263.50" departLane="best" departSpeed="max">
    <route edges="-1322 18 25 30 124 148 182 -221 231 384 425 505 828 1118 1329 2050 3246" />
  </vehicle>
  <vehicle id="156" depart="265.20" departLane="best" departSpeed="max">
    <route edges="-3253 -2811 -2427 -2337 -445 -389 393 449 -1103 1102 1943 2322 3533" />
  </vehicle>
  <vehicle id="157" depart="266.90" departLane="best" departSpeed="max">
    <route edges="-3533 -2322 -1943 -705 -17 3 104 -89 91 137 165 209 370 405 484 678 1060 1273 -2400 2402" />
  </vehicle>
  <vehicle id="158" depart="268.60" departLane="best" departSpeed="max">
    <route edges="-1538 -1242 1258 3489 -3184 3533" />
  </vehicle>
  <vehicle id="159" depart="270.30" departLane="best" departSpeed="max">
    <route edges="-2961 -2451 -182 -148 -124 112 -133 -91 89 132 151 202 479 3477" />
  </vehicle>
  <vehicle id="160" depart="272.00" departLane="best" departSpeed="max">
    <route edges="-2961 -2451 -182 -148 -124 -30 -25 -7 17 705 1943 2322 3533" />
  </vehicle>
  <vehicle id="161" depart="273.70" departLane="best" departSpeed="max">
    <route edges="-2368 -190 -148 -124 -30 -25 -18 217 249 266 -2378 2394 2687" />
  </vehicle>
  <vehicle id="162" depart="275.40" departLane="best" departSpeed="max">
    <route edges="-3246 -2050 -1329 -1118 -828 -505 -425 -384 -231 221 -182 -148 -124 -30 -25 -18 217 249 266 -2378 2394 2687" />
  </vehicle>