<connections>
  <connection from="E0" to="E1" fromLane="1" toLane="0"/>
</connections>
