<edges>
  <edge id="E0" from="A" to="B" numLanes="2" speed="13.89"/>
  <edge id="E1" from="B" to="C" numLanes="1" speed="13.89"/>
</edges>
