<nodes>
  <node id="A" x="0"   y="0"/>
  <node id="B" x="300" y="0" type="priority"/>
  <node id="C" x="600" y="0"/>
</nodes>
