<edges>
    <edge id="e_src1"  from="O" to="P" numLanes="1" speed="13.89"/>
    <edge id="e_src2"  from="P" to="J" numLanes="1" speed="13.89"/>
    <edge id="e_short" from="J" to="M" numLanes="1" speed="13.89" length="150"/>
    <edge id="e_det1"  from="J" to="K" numLanes="1" speed="13.89"/>
    <edge id="e_det2"  from="K" to="M" numLanes="1" speed="13.89"/>
    <edge id="e_dest"  from="M" to="S" numLanes="1" speed="13.89"/>
</edges>
