sumo_version=1.20.0
sumo_version_reported=Eclipse SUMO sumo Version 1.20.0
generated_utc=2026-07-18T22:50:45Z
command=sumo -c /home/user/SumoSharp/scenarios/73-reroute-routelength/config.sumocfg --fcd-output /home/user/SumoSharp/scenarios/73-reroute-routelength/golden.fcd.xml --fcd-output.acceleration --precision 6 --save-state.times 1 --save-state.files /home/user/SumoSharp/scenarios/73-reroute-routelength/golden.state.xml --no-step-log true --tripinfo-output /home/user/SumoSharp/scenarios/73-reroute-routelength/golden.tripinfo.xml
state_time=1
# input file hashes (sha256):
input=net.net.xml sha256=33b0b1365cea126cc60b5423ecfebd1e995a83038cb5459770da367de6168392
input=rou.rou.xml sha256=00e14018b90e5f1244fa01cb689a61763698d050fbb8e5945181437377135a8f
input=config.sumocfg sha256=e55f7a37962b88b4209db6489f5da427525b9c9b55db5ceb147669ec95cbe213
