<?xml version="1.0" encoding="UTF-8"?>
<routes xmlns:xsi="http://www.w3.org/2001/XMLSchema-instance" xsi:noNamespaceSchemaLocation="http://sumo.dlr.de/xsd/routes_file.xsd">
    <vType id="car" vClass="passenger" sigma="0"/>
    <route id="exit"    edges="JE"/>
    <route id="through" edges="WJ JE"/>
    <route id="cross"   edges="NJ JS"/>
    <vehicle id="mBlock"   type="car" route="exit"    depart="0" departPos="6"  departSpeed="0">
        <stop lane="JE_0" endPos="6" duration="1000"/>
    </vehicle>
    <vehicle id="mThrough" type="car" route="through" depart="4" departPos="0" departSpeed="13.89" departLane="0"/>
    <vehicle id="nCross"   type="car" route="cross"   depart="4" departPos="0" departSpeed="13.89" departLane="0"/>
</routes>
