<?xml version="1.0" encoding="UTF-8"?>
<routes xmlns:xsi="http://www.w3.org/2001/XMLSchema-instance" xsi:noNamespaceSchemaLocation="http://sumo.dlr.de/xsd/routes_file.xsd">
    <vType id="car" vClass="passenger" sigma="0"/>
    <route id="r0" edges="e0"/>
    <vehicle id="blocker"  type="car" route="r0" depart="0" departPos="50" departSpeed="0" departLane="0">
        <stop lane="e0_0" startPos="245" endPos="250" duration="1000"/>
    </vehicle>
    <vehicle id="follower" type="car" route="r0" depart="0" departPos="0"  departSpeed="0" departLane="0"/>
</routes>
