<?xml version="1.0" encoding="UTF-8"?>

<!-- generated on 2026-07-10 00:22:48 by Eclipse SUMO netconvert Version 1.20.0
<configuration xmlns:xsi="http://www.w3.org/2001/XMLSchema-instance" xsi:noNamespaceSchemaLocation="http://sumo.dlr.de/xsd/netconvertConfiguration.xsd">

    <input>
        <node-files value="scenarios/_diag/wide-swerve/n.nod.xml"/>
        <edge-files value="scenarios/_diag/wide-swerve/e.edg.xml"/>
    </input>

    <output>
        <output-file value="scenarios/_diag/wide-swerve/net.net.xml"/>
    </output>

</configuration>
-->

<net version="1.20" junctionCornerDetail="5" limitTurnSpeed="5.50" xmlns:xsi="http://www.w3.org/2001/XMLSchema-instance" xsi:noNamespaceSchemaLocation="http://sumo.dlr.de/xsd/net_file.xsd">

    <location netOffset="0.00,0.00" convBoundary="0.00,0.00,600.00,0.00" origBoundary="0.00,0.00,600.00,0.00" projParameter="!"/>

    <edge id="e0" from="a" to="b" priority="-1">
        <lane id="e0_0" index="0" speed="13.89" length="600.00" width="6.00" shape="0.00,-3.00 600.00,-3.00"/>
    </edge>

    <junction id="a" type="dead_end" x="0.00" y="0.00" incLanes="" intLanes="" shape="0.00,0.00 0.00,-6.00"/>
    <junction id="b" type="dead_end" x="600.00" y="0.00" incLanes="e0_0" intLanes="" shape="600.00,-6.00 600.00,0.00"/>

</net>
