<?xml version="1.0" encoding="UTF-8"?>

<!-- generated on 2026-07-22 09:17:31 by Eclipse SUMO netgenerate Version 1.20.0
<configuration xmlns:xsi="http://www.w3.org/2001/XMLSchema-instance" xsi:noNamespaceSchemaLocation="http://sumo.dlr.de/xsd/netgenerateConfiguration.xsd">

    <grid_network>
        <grid value="true"/>
        <grid.number value="3"/>
        <grid.length value="300"/>
        <grid.attach-length value="200"/>
    </grid_network>

    <output>
        <output-file value="/tmp/sat/net.net.xml"/>
    </output>

    <building_defaults>
        <default.lanenumber value="1"/>
        <default.speed value="13.89"/>
    </building_defaults>

    <tls_building>
        <tls.set value="B1"/>
        <tls.default-type value="static"/>
    </tls_building>

</configuration>
-->

<net version="1.20" junctionCornerDetail="5" limitTurnSpeed="5.50" xmlns:xsi="http://www.w3.org/2001/XMLSchema-instance" xsi:noNamespaceSchemaLocation="http://sumo.dlr.de/xsd/net_file.xsd">

    <location netOffset="0.00,0.00" convBoundary="0.00,0.00,1000.00,1000.00" origBoundary="0.00,0.00,1000.00,1000.00" projParameter="!"/>

    <edge id=":A0_0" function="internal">
        <lane id=":A0_0_0" index="0" speed="6.51" length="9.03" shape="198.40,207.20 198.05,204.75 197.00,203.00 195.25,201.95 192.80,201.60"/>
    </edge>
    <edge id=":A0_1" function="internal">
        <lane id=":A0_1_0" index="0" speed="13.89" length="14.40" shape="198.40,207.20 198.40,192.80"/>
    </edge>
    <edge id=":A0_2" function="internal">
        <lane id=":A0_2_0" index="0" speed="8.00" length="4.07" shape="198.40,207.20 198.95,203.35 199.04,203.20"/>
    </edge>
    <edge id=":A0_3" function="internal">
        <lane id=":A0_3_0" index="0" speed="3.65" length="1.44" shape="198.40,207.20 199.20,206.00"/>
    </edge>
    <edge id=":A0_16" function="internal">
        <lane id=":A0_16_0" index="0" speed="8.00" length="10.13" shape="199.04,203.20 200.60,200.60 203.35,198.95 207.20,198.40"/>
    </edge>
    <edge id=":A0_17" function="internal">
        <lane id=":A0_17_0" index="0" speed="3.65" length="3.23" shape="199.20,206.00 200.00,205.60 200.80,206.00 201.60,207.20"/>
    </edge>
    <edge id=":A0_4" function="internal">
        <lane id=":A0_4_0" index="0" speed="6.51" length="9.03" shape="207.20,201.60 204.75,201.95 203.00,203.00 201.95,204.75 201.60,207.20"/>
    </edge>
    <edge id=":A0_5" function="internal">
        <lane id=":A0_5_0" index="0" speed="13.89" length="14.40" shape="207.20,201.60 192.80,201.60"/>
    </edge>
    <edge id=":A0_6" function="internal">
        <lane id=":A0_6_0" index="0" speed="8.00" length="14.19" shape="207.20,201.60 203.35,201.05 200.60,199.40 198.95,196.65 198.40,192.80"/>
    </edge>
    <edge id=":A0_7" function="internal">
        <lane id=":A0_7_0" index="0" speed="3.65" length="4.67" shape="207.20,201.60 206.00,200.80 205.60,200.00 206.00,199.20 207.20,198.40"/>
    </edge>
    <edge id=":A0_8" function="internal">
        <lane id=":A0_8_0" index="0" speed="6.51" length="9.03" shape="201.60,192.80 201.95,195.25 203.00,197.00 204.75,198.05 207.20,198.40"/>
    </edge>
    <edge id=":A0_9" function="internal">
        <lane id=":A0_9_0" index="0" speed="13.89" length="14.40" shape="201.60,192.80 201.60,207.20"/>
    </edge>
    <edge id=":A0_10" function="internal">
        <lane id=":A0_10_0" index="0" speed="8.00" length="4.07" shape="201.60,192.80 201.05,196.65 200.96,196.80"/>
    </edge>
    <edge id=":A0_11" function="internal">
        <lane id=":A0_11_0" index="0" speed="3.65" length="1.44" shape="201.60,192.80 200.80,194.00"/>
    </edge>
    <edge id=":A0_18" function="internal">
        <lane id=":A0_18_0" index="0" speed="8.00" length="10.13" shape="200.96,196.80 199.40,199.40 196.65,201.05 192.80,201.60"/>
    </edge>
    <edge id=":A0_19" function="internal">
        <lane id=":A0_19_0" index="0" speed="3.65" length="3.23" shape="200.80,194.00 200.00,194.40 199.20,194.00 198.40,192.80"/>
    </edge>
    <edge id=":A0_12" function="internal">
        <lane id=":A0_12_0" index="0" speed="6.51" length="9.03" shape="192.80,198.40 195.25,198.05 197.00,197.00 198.05,195.25 198.40,192.80"/>
    </edge>
    <edge id=":A0_13" function="internal">
        <lane id=":A0_13_0" index="0" speed="13.89" length="14.40" shape="192.80,198.40 207.20,198.40"/>
    </edge>
    <edge id=":A0_14" function="internal">
        <lane id=":A0_14_0" index="0" speed="8.00" length="14.19" shape="192.80,198.40 196.65,198.95 199.40,200.60 201.05,203.35 201.60,207.20"/>
    </edge>
    <edge id=":A0_15" function="internal">
        <lane id=":A0_15_0" index="0" speed="3.65" length="4.67" shape="192.80,198.40 194.00,199.20 194.40,200.00 194.00,200.80 192.80,201.60"/>
    </edge>
    <edge id=":A1_0" function="internal">
        <lane id=":A1_0_0" index="0" speed="6.51" length="9.03" shape="198.40,507.20 198.05,504.75 197.00,503.00 195.25,501.95 192.80,501.60"/>
    </edge>
    <edge id=":A1_1" function="internal">
        <lane id=":A1_1_0" index="0" speed="13.89" length="14.40" shape="198.40,507.20 198.40,492.80"/>
    </edge>
    <edge id=":A1_2" function="internal">
        <lane id=":A1_2_0" index="0" speed="8.00" length="4.07" shape="198.40,507.20 198.95,503.35 199.04,503.20"/>
    </edge>
    <edge id=":A1_3" function="internal">
        <lane id=":A1_3_0" index="0" speed="3.65" length="1.44" shape="198.40,507.20 199.20,506.00"/>
    </edge>
    <edge id=":A1_16" function="internal">
        <lane id=":A1_16_0" index="0" speed="8.00" length="10.13" shape="199.04,503.20 200.60,500.60 203.35,498.95 207.20,498.40"/>
    </edge>
    <edge id=":A1_17" function="internal">
        <lane id=":A1_17_0" index="0" speed="3.65" length="3.23" shape="199.20,506.00 200.00,505.60 200.80,506.00 201.60,507.20"/>
    </edge>
    <edge id=":A1_4" function="internal">
        <lane id=":A1_4_0" index="0" speed="6.51" length="9.03" shape="207.20,501.60 204.75,501.95 203.00,503.00 201.95,504.75 201.60,507.20"/>
    </edge>
    <edge id=":A1_5" function="internal">
        <lane id=":A1_5_0" index="0" speed="13.89" length="14.40" shape="207.20,501.60 192.80,501.60"/>
    </edge>
    <edge id=":A1_6" function="internal">
        <lane id=":A1_6_0" index="0" speed="8.00" length="14.19" shape="207.20,501.60 203.35,501.05 200.60,499.40 198.95,496.65 198.40,492.80"/>
    </edge>
    <edge id=":A1_7" function="internal">
        <lane id=":A1_7_0" index="0" speed="3.65" length="4.67" shape="207.20,501.60 206.00,500.80 205.60,500.00 206.00,499.20 207.20,498.40"/>
    </edge>
    <edge id=":A1_8" function="internal">
        <lane id=":A1_8_0" index="0" speed="6.51" length="9.03" shape="201.60,492.80 201.95,495.25 203.00,497.00 204.75,498.05 207.20,498.40"/>
    </edge>
    <edge id=":A1_9" function="internal">
        <lane id=":A1_9_0" index="0" speed="13.89" length="14.40" shape="201.60,492.80 201.60,507.20"/>
    </edge>
    <edge id=":A1_10" function="internal">
        <lane id=":A1_10_0" index="0" speed="8.00" length="4.07" shape="201.60,492.80 201.05,496.65 200.96,496.80"/>
    </edge>
    <edge id=":A1_11" function="internal">
        <lane id=":A1_11_0" index="0" speed="3.65" length="1.44" shape="201.60,492.80 200.80,494.00"/>
    </edge>
    <edge id=":A1_18" function="internal">
        <lane id=":A1_18_0" index="0" speed="8.00" length="10.13" shape="200.96,496.80 199.40,499.40 196.65,501.05 192.80,501.60"/>
    </edge>
    <edge id=":A1_19" function="internal">
        <lane id=":A1_19_0" index="0" speed="3.65" length="3.23" shape="200.80,494.00 200.00,494.40 199.20,494.00 198.40,492.80"/>
    </edge>
    <edge id=":A1_12" function="internal">
        <lane id=":A1_12_0" index="0" speed="6.51" length="9.03" shape="192.80,498.40 195.25,498.05 197.00,497.00 198.05,495.25 198.40,492.80"/>
    </edge>
    <edge id=":A1_13" function="internal">
        <lane id=":A1_13_0" index="0" speed="13.89" length="14.40" shape="192.80,498.40 207.20,498.40"/>
    </edge>
    <edge id=":A1_14" function="internal">
        <lane id=":A1_14_0" index="0" speed="8.00" length="14.19" shape="192.80,498.40 196.65,498.95 199.40,500.60 201.05,503.35 201.60,507.20"/>
    </edge>
    <edge id=":A1_15" function="internal">
        <lane id=":A1_15_0" index="0" speed="3.65" length="4.67" shape="192.80,498.40 194.00,499.20 194.40,500.00 194.00,500.80 192.80,501.60"/>
    </edge>
    <edge id=":A2_0" function="internal">
        <lane id=":A2_0_0" index="0" speed="6.51" length="9.03" shape="198.40,807.20 198.05,804.75 197.00,803.00 195.25,801.95 192.80,801.60"/>
    </edge>
    <edge id=":A2_1" function="internal">
        <lane id=":A2_1_0" index="0" speed="13.89" length="14.40" shape="198.40,807.20 198.40,792.80"/>
    </edge>
    <edge id=":A2_2" function="internal">
        <lane id=":A2_2_0" index="0" speed="8.00" length="4.07" shape="198.40,807.20 198.95,803.35 199.04,803.20"/>
    </edge>
    <edge id=":A2_3" function="internal">
        <lane id=":A2_3_0" index="0" speed="3.65" length="1.44" shape="198.40,807.20 199.20,806.00"/>
    </edge>
    <edge id=":A2_16" function="internal">
        <lane id=":A2_16_0" index="0" speed="8.00" length="10.13" shape="199.04,803.20 200.60,800.60 203.35,798.95 207.20,798.40"/>
    </edge>
    <edge id=":A2_17" function="internal">
        <lane id=":A2_17_0" index="0" speed="3.65" length="3.23" shape="199.20,806.00 200.00,805.60 200.80,806.00 201.60,807.20"/>
    </edge>
    <edge id=":A2_4" function="internal">
        <lane id=":A2_4_0" index="0" speed="6.51" length="9.03" shape="207.20,801.60 204.75,801.95 203.00,803.00 201.95,804.75 201.60,807.20"/>
    </edge>
    <edge id=":A2_5" function="internal">
        <lane id=":A2_5_0" index="0" speed="13.89" length="14.40" shape="207.20,801.60 192.80,801.60"/>
    </edge>
    <edge id=":A2_6" function="internal">
        <lane id=":A2_6_0" index="0" speed="8.00" length="14.19" shape="207.20,801.60 203.35,801.05 200.60,799.40 198.95,796.65 198.40,792.80"/>
    </edge>
    <edge id=":A2_7" function="internal">
        <lane id=":A2_7_0" index="0" speed="3.65" length="4.67" shape="207.20,801.60 206.00,800.80 205.60,800.00 206.00,799.20 207.20,798.40"/>
    </edge>
    <edge id=":A2_8" function="internal">
        <lane id=":A2_8_0" index="0" speed="6.51" length="9.03" shape="201.60,792.80 201.95,795.25 203.00,797.00 204.75,798.05 207.20,798.40"/>
    </edge>
    <edge id=":A2_9" function="internal">
        <lane id=":A2_9_0" index="0" speed="13.89" length="14.40" shape="201.60,792.80 201.60,807.20"/>
    </edge>
    <edge id=":A2_10" function="internal">
        <lane id=":A2_10_0" index="0" speed="8.00" length="4.07" shape="201.60,792.80 201.05,796.65 200.96,796.80"/>
    </edge>
    <edge id=":A2_11" function="internal">
        <lane id=":A2_11_0" index="0" speed="3.65" length="1.44" shape="201.60,792.80 200.80,794.00"/>
    </edge>
    <edge id=":A2_18" function="internal">
        <lane id=":A2_18_0" index="0" speed="8.00" length="10.13" shape="200.96,796.80 199.40,799.40 196.65,801.05 192.80,801.60"/>
    </edge>
    <edge id=":A2_19" function="internal">
        <lane id=":A2_19_0" index="0" speed="3.65" length="3.23" shape="200.80,794.00 200.00,794.40 199.20,794.00 198.40,792.80"/>
    </edge>
    <edge id=":A2_12" function="internal">
        <lane id=":A2_12_0" index="0" speed="6.51" length="9.03" shape="192.80,798.40 195.25,798.05 197.00,797.00 198.05,795.25 198.40,792.80"/>
    </edge>
    <edge id=":A2_13" function="internal">
        <lane id=":A2_13_0" index="0" speed="13.89" length="14.40" shape="192.80,798.40 207.20,798.40"/>
    </edge>
    <edge id=":A2_14" function="internal">
        <lane id=":A2_14_0" index="0" speed="8.00" length="14.19" shape="192.80,798.40 196.65,798.95 199.40,800.60 201.05,803.35 201.60,807.20"/>
    </edge>
    <edge id=":A2_15" function="internal">
        <lane id=":A2_15_0" index="0" speed="3.65" length="4.67" shape="192.80,798.40 194.00,799.20 194.40,800.00 194.00,800.80 192.80,801.60"/>
    </edge>
    <edge id=":B0_0" function="internal">
        <lane id=":B0_0_0" index="0" speed="6.51" length="9.03" shape="498.40,207.20 498.05,204.75 497.00,203.00 495.25,201.95 492.80,201.60"/>
    </edge>
    <edge id=":B0_1" function="internal">
        <lane id=":B0_1_0" index="0" speed="13.89" length="14.40" shape="498.40,207.20 498.40,192.80"/>
    </edge>
    <edge id=":B0_2" function="internal">
        <lane id=":B0_2_0" index="0" speed="8.00" length="4.07" shape="498.40,207.20 498.95,203.35 499.04,203.20"/>
    </edge>
    <edge id=":B0_3" function="internal">
        <lane id=":B0_3_0" index="0" speed="3.65" length="1.44" shape="498.40,207.20 499.20,206.00"/>
    </edge>
    <edge id=":B0_16" function="internal">
        <lane id=":B0_16_0" index="0" speed="8.00" length="10.13" shape="499.04,203.20 500.60,200.60 503.35,198.95 507.20,198.40"/>
    </edge>
    <edge id=":B0_17" function="internal">
        <lane id=":B0_17_0" index="0" speed="3.65" length="3.23" shape="499.20,206.00 500.00,205.60 500.80,206.00 501.60,207.20"/>
    </edge>
    <edge id=":B0_4" function="internal">
        <lane id=":B0_4_0" index="0" speed="6.51" length="9.03" shape="507.20,201.60 504.75,201.95 503.00,203.00 501.95,204.75 501.60,207.20"/>
    </edge>
    <edge id=":B0_5" function="internal">
        <lane id=":B0_5_0" index="0" speed="13.89" length="14.40" shape="507.20,201.60 492.80,201.60"/>
    </edge>
    <edge id=":B0_6" function="internal">
        <lane id=":B0_6_0" index="0" speed="8.00" length="14.19" shape="507.20,201.60 503.35,201.05 500.60,199.40 498.95,196.65 498.40,192.80"/>
    </edge>
    <edge id=":B0_7" function="internal">
        <lane id=":B0_7_0" index="0" speed="3.65" length="4.67" shape="507.20,201.60 506.00,200.80 505.60,200.00 506.00,199.20 507.20,198.40"/>
    </edge>
    <edge id=":B0_8" function="internal">
        <lane id=":B0_8_0" index="0" speed="6.51" length="9.03" shape="501.60,192.80 501.95,195.25 503.00,197.00 504.75,198.05 507.20,198.40"/>
    </edge>
    <edge id=":B0_9" function="internal">
        <lane id=":B0_9_0" index="0" speed="13.89" length="14.40" shape="501.60,192.80 501.60,207.20"/>
    </edge>
    <edge id=":B0_10" function="internal">
        <lane id=":B0_10_0" index="0" speed="8.00" length="4.07" shape="501.60,192.80 501.05,196.65 500.96,196.80"/>
    </edge>
    <edge id=":B0_11" function="internal">
        <lane id=":B0_11_0" index="0" speed="3.65" length="1.44" shape="501.60,192.80 500.80,194.00"/>
    </edge>
    <edge id=":B0_18" function="internal">
        <lane id=":B0_18_0" index="0" speed="8.00" length="10.13" shape="500.96,196.80 499.40,199.40 496.65,201.05 492.80,201.60"/>
    </edge>
    <edge id=":B0_19" function="internal">
        <lane id=":B0_19_0" index="0" speed="3.65" length="3.23" shape="500.80,194.00 500.00,194.40 499.20,194.00 498.40,192.80"/>
    </edge>
    <edge id=":B0_12" function="internal">
        <lane id=":B0_12_0" index="0" speed="6.51" length="9.03" shape="492.80,198.40 495.25,198.05 497.00,197.00 498.05,195.25 498.40,192.80"/>
    </edge>
    <edge id=":B0_13" function="internal">
        <lane id=":B0_13_0" index="0" speed="13.89" length="14.40" shape="492.80,198.40 507.20,198.40"/>
    </edge>
    <edge id=":B0_14" function="internal">
        <lane id=":B0_14_0" index="0" speed="8.00" length="14.19" shape="492.80,198.40 496.65,198.95 499.40,200.60 501.05,203.35 501.60,207.20"/>
    </edge>
    <edge id=":B0_15" function="internal">
        <lane id=":B0_15_0" index="0" speed="3.65" length="4.67" shape="492.80,198.40 494.00,199.20 494.40,200.00 494.00,200.80 492.80,201.60"/>
    </edge>
    <edge id=":B1_0" function="internal">
        <lane id=":B1_0_0" index="0" speed="6.51" length="9.03" shape="498.40,507.20 498.05,504.75 497.00,503.00 495.25,501.95 492.80,501.60"/>
    </edge>
    <edge id=":B1_1" function="internal">
        <lane id=":B1_1_0" index="0" speed="13.89" length="14.40" shape="498.40,507.20 498.40,492.80"/>
    </edge>
    <edge id=":B1_2" function="internal">
        <lane id=":B1_2_0" index="0" speed="8.00" length="4.07" shape="498.40,507.20 498.95,503.35 499.04,503.20"/>
    </edge>
    <edge id=":B1_3" function="internal">
        <lane id=":B1_3_0" index="0" speed="3.65" length="1.44" shape="498.40,507.20 499.20,506.00"/>
    </edge>
    <edge id=":B1_16" function="internal">
        <lane id=":B1_16_0" index="0" speed="8.00" length="10.13" shape="499.04,503.20 500.60,500.60 503.35,498.95 507.20,498.40"/>
    </edge>
    <edge id=":B1_17" function="internal">
        <lane id=":B1_17_0" index="0" speed="3.65" length="3.23" shape="499.20,506.00 500.00,505.60 500.80,506.00 501.60,507.20"/>
    </edge>
    <edge id=":B1_4" function="internal">
        <lane id=":B1_4_0" index="0" speed="6.51" length="9.03" shape="507.20,501.60 504.75,501.95 503.00,503.00 501.95,504.75 501.60,507.20"/>
    </edge>
    <edge id=":B1_5" function="internal">
        <lane id=":B1_5_0" index="0" speed="13.89" length="14.40" shape="507.20,501.60 492.80,501.60"/>
    </edge>
    <edge id=":B1_6" function="internal">
        <lane id=":B1_6_0" index="0" speed="8.00" length="4.07" shape="507.20,501.60 503.35,501.05 503.20,500.96"/>
    </edge>
    <edge id=":B1_7" function="internal">
        <lane id=":B1_7_0" index="0" speed="3.65" length="1.44" shape="507.20,501.60 506.00,500.80"/>
    </edge>
    <edge id=":B1_18" function="internal">
        <lane id=":B1_18_0" index="0" speed="8.00" length="10.13" shape="503.20,500.96 500.60,499.40 498.95,496.65 498.40,492.80"/>
    </edge>
    <edge id=":B1_19" function="internal">
        <lane id=":B1_19_0" index="0" speed="3.65" length="3.23" shape="506.00,500.80 505.60,500.00 506.00,499.20 507.20,498.40"/>
    </edge>
    <edge id=":B1_8" function="internal">
        <lane id=":B1_8_0" index="0" speed="6.51" length="9.03" shape="501.60,492.80 501.95,495.25 503.00,497.00 504.75,498.05 507.20,498.40"/>
    </edge>
    <edge id=":B1_9" function="internal">
        <lane id=":B1_9_0" index="0" speed="13.89" length="14.40" shape="501.60,492.80 501.60,507.20"/>
    </edge>
    <edge id=":B1_10" function="internal">
        <lane id=":B1_10_0" index="0" speed="8.00" length="4.07" shape="501.60,492.80 501.05,496.65 500.96,496.80"/>
    </edge>
    <edge id=":B1_11" function="internal">
        <lane id=":B1_11_0" index="0" speed="3.65" length="1.44" shape="501.60,492.80 500.80,494.00"/>
    </edge>
    <edge id=":B1_20" function="internal">
        <lane id=":B1_20_0" index="0" speed="8.00" length="10.13" shape="500.96,496.80 499.40,499.40 496.65,501.05 492.80,501.60"/>
    </edge>
    <edge id=":B1_21" function="internal">
        <lane id=":B1_21_0" index="0" speed="3.65" length="3.23" shape="500.80,494.00 500.00,494.40 499.20,494.00 498.40,492.80"/>
    </edge>
    <edge id=":B1_12" function="internal">
        <lane id=":B1_12_0" index="0" speed="6.51" length="9.03" shape="492.80,498.40 495.25,498.05 497.00,497.00 498.05,495.25 498.40,492.80"/>
    </edge>
    <edge id=":B1_13" function="internal">
        <lane id=":B1_13_0" index="0" speed="13.89" length="14.40" shape="492.80,498.40 507.20,498.40"/>
    </edge>
    <edge id=":B1_14" function="internal">
        <lane id=":B1_14_0" index="0" speed="8.00" length="4.07" shape="492.80,498.40 496.65,498.95 496.80,499.04"/>
    </edge>
    <edge id=":B1_15" function="internal">
        <lane id=":B1_15_0" index="0" speed="3.65" length="1.44" shape="492.80,498.40 494.00,499.20"/>
    </edge>
    <edge id=":B1_22" function="internal">
        <lane id=":B1_22_0" index="0" speed="8.00" length="10.13" shape="496.80,499.04 499.40,500.60 501.05,503.35 501.60,507.20"/>
    </edge>
    <edge id=":B1_23" function="internal">
        <lane id=":B1_23_0" index="0" speed="3.65" length="3.23" shape="494.00,499.20 494.40,500.00 494.00,500.80 492.80,501.60"/>
    </edge>
    <edge id=":B2_0" function="internal">
        <lane id=":B2_0_0" index="0" speed="6.51" length="9.03" shape="498.40,807.20 498.05,804.75 497.00,803.00 495.25,801.95 492.80,801.60"/>
    </edge>
    <edge id=":B2_1" function="internal">
        <lane id=":B2_1_0" index="0" speed="13.89" length="14.40" shape="498.40,807.20 498.40,792.80"/>
    </edge>
    <edge id=":B2_2" function="internal">
        <lane id=":B2_2_0" index="0" speed="8.00" length="4.07" shape="498.40,807.20 498.95,803.35 499.04,803.20"/>
    </edge>
    <edge id=":B2_3" function="internal">
        <lane id=":B2_3_0" index="0" speed="3.65" length="1.44" shape="498.40,807.20 499.20,806.00"/>
    </edge>
    <edge id=":B2_16" function="internal">
        <lane id=":B2_16_0" index="0" speed="8.00" length="10.13" shape="499.04,803.20 500.60,800.60 503.35,798.95 507.20,798.40"/>
    </edge>
    <edge id=":B2_17" function="internal">
        <lane id=":B2_17_0" index="0" speed="3.65" length="3.23" shape="499.20,806.00 500.00,805.60 500.80,806.00 501.60,807.20"/>
    </edge>
    <edge id=":B2_4" function="internal">
        <lane id=":B2_4_0" index="0" speed="6.51" length="9.03" shape="507.20,801.60 504.75,801.95 503.00,803.00 501.95,804.75 501.60,807.20"/>
    </edge>
    <edge id=":B2_5" function="internal">
        <lane id=":B2_5_0" index="0" speed="13.89" length="14.40" shape="507.20,801.60 492.80,801.60"/>
    </edge>
    <edge id=":B2_6" function="internal">
        <lane id=":B2_6_0" index="0" speed="8.00" length="14.19" shape="507.20,801.60 503.35,801.05 500.60,799.40 498.95,796.65 498.40,792.80"/>
    </edge>
    <edge id=":B2_7" function="internal">
        <lane id=":B2_7_0" index="0" speed="3.65" length="4.67" shape="507.20,801.60 506.00,800.80 505.60,800.00 506.00,799.20 507.20,798.40"/>
    </edge>
    <edge id=":B2_8" function="internal">
        <lane id=":B2_8_0" index="0" speed="6.51" length="9.03" shape="501.60,792.80 501.95,795.25 503.00,797.00 504.75,798.05 507.20,798.40"/>
    </edge>
    <edge id=":B2_9" function="internal">
        <lane id=":B2_9_0" index="0" speed="13.89" length="14.40" shape="501.60,792.80 501.60,807.20"/>
    </edge>
    <edge id=":B2_10" function="internal">
        <lane id=":B2_10_0" index="0" speed="8.00" length="4.07" shape="501.60,792.80 501.05,796.65 500.96,796.80"/>
    </edge>
    <edge id=":B2_11" function="internal">
        <lane id=":B2_11_0" index="0" speed="3.65" length="1.44" shape="501.60,792.80 500.80,794.00"/>
    </edge>
    <edge id=":B2_18" function="internal">
        <lane id=":B2_18_0" index="0" speed="8.00" length="10.13" shape="500.96,796.80 499.40,799.40 496.65,801.05 492.80,801.60"/>
    </edge>
    <edge id=":B2_19" function="internal">
        <lane id=":B2_19_0" index="0" speed="3.65" length="3.23" shape="500.80,794.00 500.00,794.40 499.20,794.00 498.40,792.80"/>
    </edge>
    <edge id=":B2_12" function="internal">
        <lane id=":B2_12_0" index="0" speed="6.51" length="9.03" shape="492.80,798.40 495.25,798.05 497.00,797.00 498.05,795.25 498.40,792.80"/>
    </edge>
    <edge id=":B2_13" function="internal">
        <lane id=":B2_13_0" index="0" speed="13.89" length="14.40" shape="492.80,798.40 507.20,798.40"/>
    </edge>
    <edge id=":B2_14" function="internal">
        <lane id=":B2_14_0" index="0" speed="8.00" length="14.19" shape="492.80,798.40 496.65,798.95 499.40,800.60 501.05,803.35 501.60,807.20"/>
    </edge>
    <edge id=":B2_15" function="internal">
        <lane id=":B2_15_0" index="0" speed="3.65" length="4.67" shape="492.80,798.40 494.00,799.20 494.40,800.00 494.00,800.80 492.80,801.60"/>
    </edge>
    <edge id=":C0_0" function="internal">
        <lane id=":C0_0_0" index="0" speed="6.51" length="9.03" shape="798.40,207.20 798.05,204.75 797.00,203.00 795.25,201.95 792.80,201.60"/>
    </edge>
    <edge id=":C0_1" function="internal">
        <lane id=":C0_1_0" index="0" speed="13.89" length="14.40" shape="798.40,207.20 798.40,192.80"/>
    </edge>
    <edge id=":C0_2" function="internal">
        <lane id=":C0_2_0" index="0" speed="8.00" length="4.07" shape="798.40,207.20 798.95,203.35 799.04,203.20"/>
    </edge>
    <edge id=":C0_3" function="internal">
        <lane id=":C0_3_0" index="0" speed="3.65" length="1.44" shape="798.40,207.20 799.20,206.00"/>
    </edge>
    <edge id=":C0_16" function="internal">
        <lane id=":C0_16_0" index="0" speed="8.00" length="10.13" shape="799.04,203.20 800.60,200.60 803.35,198.95 807.20,198.40"/>
    </edge>
    <edge id=":C0_17" function="internal">
        <lane id=":C0_17_0" index="0" speed="3.65" length="3.23" shape="799.20,206.00 800.00,205.60 800.80,206.00 801.60,207.20"/>
    </edge>
    <edge id=":C0_4" function="internal">
        <lane id=":C0_4_0" index="0" speed="6.51" length="9.03" shape="807.20,201.60 804.75,201.95 803.00,203.00 801.95,204.75 801.60,207.20"/>
    </edge>
    <edge id=":C0_5" function="internal">
        <lane id=":C0_5_0" index="0" speed="13.89" length="14.40" shape="807.20,201.60 792.80,201.60"/>
    </edge>
    <edge id=":C0_6" function="internal">
        <lane id=":C0_6_0" index="0" speed="8.00" length="14.19" shape="807.20,201.60 803.35,201.05 800.60,199.40 798.95,196.65 798.40,192.80"/>
    </edge>
    <edge id=":C0_7" function="internal">
        <lane id=":C0_7_0" index="0" speed="3.65" length="4.67" shape="807.20,201.60 806.00,200.80 805.60,200.00 806.00,199.20 807.20,198.40"/>
    </edge>
    <edge id=":C0_8" function="internal">
        <lane id=":C0_8_0" index="0" speed="6.51" length="9.03" shape="801.60,192.80 801.95,195.25 803.00,197.00 804.75,198.05 807.20,198.40"/>
    </edge>
    <edge id=":C0_9" function="internal">
        <lane id=":C0_9_0" index="0" speed="13.89" length="14.40" shape="801.60,192.80 801.60,207.20"/>
    </edge>
    <edge id=":C0_10" function="internal">
        <lane id=":C0_10_0" index="0" speed="8.00" length="4.07" shape="801.60,192.80 801.05,196.65 800.96,196.80"/>
    </edge>
    <edge id=":C0_11" function="internal">
        <lane id=":C0_11_0" index="0" speed="3.65" length="1.44" shape="801.60,192.80 800.80,194.00"/>
    </edge>
    <edge id=":C0_18" function="internal">
        <lane id=":C0_18_0" index="0" speed="8.00" length="10.13" shape="800.96,196.80 799.40,199.40 796.65,201.05 792.80,201.60"/>
    </edge>
    <edge id=":C0_19" function="internal">
        <lane id=":C0_19_0" index="0" speed="3.65" length="3.23" shape="800.80,194.00 800.00,194.40 799.20,194.00 798.40,192.80"/>
    </edge>
    <edge id=":C0_12" function="internal">
        <lane id=":C0_12_0" index="0" speed="6.51" length="9.03" shape="792.80,198.40 795.25,198.05 797.00,197.00 798.05,195.25 798.40,192.80"/>
    </edge>
    <edge id=":C0_13" function="internal">
        <lane id=":C0_13_0" index="0" speed="13.89" length="14.40" shape="792.80,198.40 807.20,198.40"/>
    </edge>
    <edge id=":C0_14" function="internal">
        <lane id=":C0_14_0" index="0" speed="8.00" length="14.19" shape="792.80,198.40 796.65,198.95 799.40,200.60 801.05,203.35 801.60,207.20"/>
    </edge>
    <edge id=":C0_15" function="internal">
        <lane id=":C0_15_0" index="0" speed="3.65" length="4.67" shape="792.80,198.40 794.00,199.20 794.40,200.00 794.00,200.80 792.80,201.60"/>
    </edge>
    <edge id=":C1_0" function="internal">
        <lane id=":C1_0_0" index="0" speed="6.51" length="9.03" shape="798.40,507.20 798.05,504.75 797.00,503.00 795.25,501.95 792.80,501.60"/>
    </edge>
    <edge id=":C1_1" function="internal">
        <lane id=":C1_1_0" index="0" speed="13.89" length="14.40" shape="798.40,507.20 798.40,492.80"/>
    </edge>
    <edge id=":C1_2" function="internal">
        <lane id=":C1_2_0" index="0" speed="8.00" length="4.07" shape="798.40,507.20 798.95,503.35 799.04,503.20"/>
    </edge>
    <edge id=":C1_3" function="internal">
        <lane id=":C1_3_0" index="0" speed="3.65" length="1.44" shape="798.40,507.20 799.20,506.00"/>
    </edge>
    <edge id=":C1_16" function="internal">
        <lane id=":C1_16_0" index="0" speed="8.00" length="10.13" shape="799.04,503.20 800.60,500.60 803.35,498.95 807.20,498.40"/>
    </edge>
    <edge id=":C1_17" function="internal">
        <lane id=":C1_17_0" index="0" speed="3.65" length="3.23" shape="799.20,506.00 800.00,505.60 800.80,506.00 801.60,507.20"/>
    </edge>
    <edge id=":C1_4" function="internal">
        <lane id=":C1_4_0" index="0" speed="6.51" length="9.03" shape="807.20,501.60 804.75,501.95 803.00,503.00 801.95,504.75 801.60,507.20"/>
    </edge>
    <edge id=":C1_5" function="internal">
        <lane id=":C1_5_0" index="0" speed="13.89" length="14.40" shape="807.20,501.60 792.80,501.60"/>
    </edge>
    <edge id=":C1_6" function="internal">
        <lane id=":C1_6_0" index="0" speed="8.00" length="14.19" shape="807.20,501.60 803.35,501.05 800.60,499.40 798.95,496.65 798.40,492.80"/>
    </edge>
    <edge id=":C1_7" function="internal">
        <lane id=":C1_7_0" index="0" speed="3.65" length="4.67" shape="807.20,501.60 806.00,500.80 805.60,500.00 806.00,499.20 807.20,498.40"/>
    </edge>
    <edge id=":C1_8" function="internal">
        <lane id=":C1_8_0" index="0" speed="6.51" length="9.03" shape="801.60,492.80 801.95,495.25 803.00,497.00 804.75,498.05 807.20,498.40"/>
    </edge>
    <edge id=":C1_9" function="internal">
        <lane id=":C1_9_0" index="0" speed="13.89" length="14.40" shape="801.60,492.80 801.60,507.20"/>
    </edge>
    <edge id=":C1_10" function="internal">
        <lane id=":C1_10_0" index="0" speed="8.00" length="4.07" shape="801.60,492.80 801.05,496.65 800.96,496.80"/>
    </edge>
    <edge id=":C1_11" function="internal">
        <lane id=":C1_11_0" index="0" speed="3.65" length="1.44" shape="801.60,492.80 800.80,494.00"/>
    </edge>
    <edge id=":C1_18" function="internal">
        <lane id=":C1_18_0" index="0" speed="8.00" length="10.13" shape="800.96,496.80 799.40,499.40 796.65,501.05 792.80,501.60"/>
    </edge>
    <edge id=":C1_19" function="internal">
        <lane id=":C1_19_0" index="0" speed="3.65" length="3.23" shape="800.80,494.00 800.00,494.40 799.20,494.00 798.40,492.80"/>
    </edge>