<configuration>
  <input><net-file value="net.net.xml"/><route-files value="sat.rou.xml"/></input>
  <time><begin value="0"/><end value="600"/><step-length value="1.0"/></time>
  <processing><time-to-teleport value="-1"/></processing>
</configuration>
