<?xml version="1.0" encoding="UTF-8"?>

<!-- generated on 2026-07-13 08:26:54 by Eclipse SUMO netconvert Version 1.18.0
<configuration xmlns:xsi="http://www.w3.org/2001/XMLSchema-instance" xsi:noNamespaceSchemaLocation="http://sumo.dlr.de/xsd/netconvertConfiguration.xsd">

    <input>
        <node-files value="/tmp/claude-0/-home-user-SUMO-NET/cf27b19c-aa17-5fcf-8623-6a70b352f1c1/scratchpad/jg/cross.nod.xml"/>
        <edge-files value="/tmp/claude-0/-home-user-SUMO-NET/cf27b19c-aa17-5fcf-8623-6a70b352f1c1/scratchpad/jg/cross.edg.xml"/>
    </input>

    <output>
        <output-file value="samples/junctions/cross/net.net.xml"/>
    </output>

    <processing>
        <offset.disable-normalization value="true"/>
    </processing>

    <junctions>
        <no-turnarounds value="true"/>
        <junctions.corner-detail value="8"/>
    </junctions>

</configuration>
-->

<net version="1.16" junctionCornerDetail="8" limitTurnSpeed="5.50" xmlns:xsi="http://www.w3.org/2001/XMLSchema-instance" xsi:noNamespaceSchemaLocation="http://sumo.dlr.de/xsd/net_file.xsd">

    <location netOffset="0.00,0.00" convBoundary="-120.00,-120.00,120.00,120.00" origBoundary="-120.00,-120.00,120.00,120.00" projParameter="!"/>

    <edge id=":C_0" function="internal">
        <lane id=":C_0_0" index="0" speed="6.51" length="9.03" shape="-4.80,10.40 -5.15,7.95 -6.20,6.20 -7.95,5.15 -10.40,4.80"/>
    </edge>
    <edge id=":C_1" function="internal">
        <lane id=":C_1_0" index="0" speed="13.90" length="20.80" shape="-4.80,10.40 -4.80,-10.40"/>
        <lane id=":C_1_1" index="1" speed="13.90" length="20.80" shape="-1.60,10.40 -1.60,-10.40"/>
    </edge>
    <edge id=":C_3" function="internal">
        <lane id=":C_3_0" index="0" speed="9.26" length="5.01" shape="-1.60,10.40 -0.89,5.44"/>
    </edge>
    <edge id=":C_16" function="internal">
        <lane id=":C_16_0" index="0" speed="9.26" length="14.34" shape="-0.89,5.44 -0.85,5.15 1.40,1.40 5.15,-0.85 10.40,-1.60"/>
    </edge>
    <edge id=":C_4" function="internal">
        <lane id=":C_4_0" index="0" speed="6.51" length="9.03" shape="10.40,4.80 7.95,5.15 6.20,6.20 5.15,7.95 4.80,10.40"/>
    </edge>
    <edge id=":C_5" function="internal">
        <lane id=":C_5_0" index="0" speed="13.90" length="20.80" shape="10.40,4.80 -10.40,4.80"/>
        <lane id=":C_5_1" index="1" speed="13.90" length="20.80" shape="10.40,1.60 -10.40,1.60"/>
    </edge>
    <edge id=":C_7" function="internal">
        <lane id=":C_7_0" index="0" speed="9.26" length="5.01" shape="10.40,1.60 5.44,0.89"/>
    </edge>
    <edge id=":C_17" function="internal">
        <lane id=":C_17_0" index="0" speed="9.26" length="14.34" shape="5.44,0.89 5.15,0.85 1.40,-1.40 -0.85,-5.15 -1.60,-10.40"/>
    </edge>
    <edge id=":C_8" function="internal">
        <lane id=":C_8_0" index="0" speed="6.51" length="9.03" shape="4.80,-10.40 5.15,-7.95 6.20,-6.20 7.95,-5.15 10.40,-4.80"/>
    </edge>
    <edge id=":C_9" function="internal">
        <lane id=":C_9_0" index="0" speed="13.90" length="20.80" shape="4.80,-10.40 4.80,10.40"/>
        <lane id=":C_9_1" index="1" speed="13.90" length="20.80" shape="1.60,-10.40 1.60,10.40"/>
    </edge>
    <edge id=":C_11" function="internal">
        <lane id=":C_11_0" index="0" speed="9.26" length="5.01" shape="1.60,-10.40 0.89,-5.44"/>
    </edge>
    <edge id=":C_18" function="internal">
        <lane id=":C_18_0" index="0" speed="9.26" length="14.34" shape="0.89,-5.44 0.85,-5.15 -1.40,-1.40 -5.15,0.85 -10.40,1.60"/>
    </edge>
    <edge id=":C_12" function="internal">
        <lane id=":C_12_0" index="0" speed="6.51" length="9.03" shape="-10.40,-4.80 -7.95,-5.15 -6.20,-6.20 -5.15,-7.95 -4.80,-10.40"/>
    </edge>
    <edge id=":C_13" function="internal">
        <lane id=":C_13_0" index="0" speed="13.90" length="20.80" shape="-10.40,-4.80 10.40,-4.80"/>
        <lane id=":C_13_1" index="1" speed="13.90" length="20.80" shape="-10.40,-1.60 10.40,-1.60"/>
    </edge>
    <edge id=":C_15" function="internal">
        <lane id=":C_15_0" index="0" speed="9.26" length="5.01" shape="-10.40,-1.60 -5.44,-0.89"/>
    </edge>
    <edge id=":C_19" function="internal">
        <lane id=":C_19_0" index="0" speed="9.26" length="14.34" shape="-5.44,-0.89 -5.15,-0.85 -1.40,1.40 0.85,5.15 1.60,10.40"/>
    </edge>

    <edge id="CE" from="C" to="E" priority="-1">
        <lane id="CE_0" index="0" speed="13.90" length="109.60" shape="10.40,-4.80 120.00,-4.80"/>
        <lane id="CE_1" index="1" speed="13.90" length="109.60" shape="10.40,-1.60 120.00,-1.60"/>
    </edge>
    <edge id="CN" from="C" to="N" priority="-1">
        <lane id="CN_0" index="0" speed="13.90" length="109.60" shape="4.80,10.40 4.80,120.00"/>
        <lane id="CN_1" index="1" speed="13.90" length="109.60" shape="1.60,10.40 1.60,120.00"/>
    </edge>
    <edge id="CS" from="C" to="S" priority="-1">
        <lane id="CS_0" index="0" speed="13.90" length="109.60" shape="-4.80,-10.40 -4.80,-120.00"/>
        <lane id="CS_1" index="1" speed="13.90" length="109.60" shape="-1.60,-10.40 -1.60,-120.00"/>
    </edge>
    <edge id="CW" from="C" to="W" priority="-1">
        <lane id="CW_0" index="0" speed="13.90" length="109.60" shape="-10.40,4.80 -120.00,4.80"/>
        <lane id="CW_1" index="1" speed="13.90" length="109.60" shape="-10.40,1.60 -120.00,1.60"/>
    </edge>
    <edge id="EC" from="E" to="C" priority="-1">
        <lane id="EC_0" index="0" speed="13.90" length="109.60" shape="120.00,4.80 10.40,4.80"/>
        <lane id="EC_1" index="1" speed="13.90" length="109.60" shape="120.00,1.60 10.40,1.60"/>
    </edge>
    <edge id="NC" from="N" to="C" priority="-1">
        <lane id="NC_0" index="0" speed="13.90" length="109.60" shape="-4.80,120.00 -4.80,10.40"/>
        <lane id="NC_1" index="1" speed="13.90" length="109.60" shape="-1.60,120.00 -1.60,10.40"/>
    </edge>
    <edge id="SC" from="S" to="C" priority="-1">
        <lane id="SC_0" index="0" speed="13.90" length="109.60" shape="4.80,-120.00 4.80,-10.40"/>
        <lane id="SC_1" index="1" speed="13.90" length="109.60" shape="1.60,-120.00 1.60,-10.40"/>
    </edge>
    <edge id="WC" from="W" to="C" priority="-1">
        <lane id="WC_0" index="0" speed="13.90" length="109.60" shape="-120.00,-4.80 -10.40,-4.80"/>
        <lane id="WC_1" index="1" speed="13.90" length="109.60" shape="-120.00,-1.60 -10.40,-1.60"/>
    </edge>

    <tlLogic id="C" type="static" programID="0" offset="0">
        <phase duration="42" state="GGGgrrrrGGGgrrrr"/>
        <phase duration="3"  state="yyyyrrrryyyyrrrr"/>
        <phase duration="42" state="rrrrGGGgrrrrGGGg"/>
        <phase duration="3"  state="rrrryyyyrrrryyyy"/>
    </tlLogic>

    <junction id="C" type="traffic_light" x="0.00" y="0.00" incLanes="NC_0 NC_1 EC_0 EC_1 SC_0 SC_1 WC_0 WC_1" intLanes=":C_0_0 :C_1_0 :C_1_1 :C_16_0 :C_4_0 :C_5_0 :C_5_1 :C_17_0 :C_8_0 :C_9_0 :C_9_1 :C_18_0 :C_12_0 :C_13_0 :C_13_1 :C_19_0" shape="-6.40,10.40 6.40,10.40 6.60,8.82 6.84,8.18 7.19,7.63 7.63,7.19 8.18,6.84 8.82,6.60 9.56,6.45 10.40,6.40 10.40,-6.40 8.82,-6.60 8.18,-6.84 7.63,-7.19 7.19,-7.63 6.84,-8.18 6.60,-8.82 6.45,-9.56 6.40,-10.40 -6.40,-10.40 -6.60,-8.82 -6.84,-8.18 -7.19,-7.63 -7.63,-7.19 -8.18,-6.84 -8.82,-6.60 -9.56,-6.45 -10.40,-6.40 -10.40,6.40 -8.82,6.60 -8.18,6.84 -7.63,7.19 -7.19,7.63 -6.84,8.18 -6.60,8.82 -6.45,9.56">
        <request index="0"  response="0000000000000000" foes="0000000001100000" cont="0"/>
        <request index="1"  response="1000000010000000" foes="1111100011100000" cont="0"/>
        <request index="2"  response="1000000010000000" foes="1111100011100000" cont="0"/>
        <request index="3"  response="1000011010000000" foes="1110011011100000" cont="1"/>
        <request index="4"  response="0000011000000000" foes="0000011000000000" cont="0"/>
        <request index="5"  response="0000111000001111" foes="1000111000001111" cont="0"/>
        <request index="6"  response="0000111000001111" foes="1000111000001111" cont="0"/>
        <request index="7"  response="0110111000001110" foes="0110111000001110" cont="1"/>
        <request index="8"  response="0000000000000000" foes="0110000000000000" cont="0"/>
        <request index="9"  response="1000000010000000" foes="1110000011111000" cont="0"/>
        <request index="10" response="1000000010000000" foes="1110000011111000" cont="0"/>
        <request index="11" response="1000000010000110" foes="1110000011100110" cont="1"/>
        <request index="12" response="0000000000000110" foes="0000000000000110" cont="0"/>
        <request index="13" response="0000111100001110" foes="0000111110001110" cont="0"/>
        <request index="14" response="0000111100001110" foes="0000111110001110" cont="0"/>
        <request index="15" response="0000111001101110" foes="0000111001101110" cont="1"/>
    </junction>
    <junction id="E" type="dead_end" x="120.00" y="0.00" incLanes="CE_0 CE_1" intLanes="" shape="120.00,0.00 120.00,-6.40 120.00,0.00"/>
    <junction id="N" type="dead_end" x="0.00" y="120.00" incLanes="CN_0 CN_1" intLanes="" shape="0.00,120.00 6.40,120.00 0.00,120.00"/>
    <junction id="S" type="dead_end" x="0.00" y="-120.00" incLanes="CS_0 CS_1" intLanes="" shape="0.00,-120.00 -6.40,-120.00 0.00,-120.00"/>
    <junction id="W" type="dead_end" x="-120.00" y="0.00" incLanes="CW_0 CW_1" intLanes="" shape="-120.00,0.00 -120.00,6.40 -120.00,0.00"/>

    <junction id=":C_16_0" type="internal" x="-0.89" y="5.44" incLanes=":C_3_0 SC_0 SC_1" intLanes=":C_5_0 :C_5_1 :C_7_0 :C_8_0 :C_9_0 :C_9_1 :C_13_0 :C_13_1 :C_15_0"/>
    <junction id=":C_17_0" type="internal" x="5.44" y="0.89" incLanes=":C_7_0 WC_0 WC_1" intLanes=":C_1_0 :C_1_1 :C_3_0 :C_9_0 :C_9_1 :C_11_0 :C_12_0 :C_13_0 :C_13_1"/>
    <junction id=":C_18_0" type="internal" x="0.89" y="-5.44" incLanes=":C_11_0 NC_0 NC_1" intLanes=":C_0_0 :C_1_0 :C_1_1 :C_5_0 :C_5_1 :C_7_0 :C_13_0 :C_13_1 :C_15_0"/>
    <junction id=":C_19_0" type="internal" x="-5.44" y="-0.89" incLanes=":C_15_0 EC_0 EC_1" intLanes=":C_1_0 :C_1_1 :C_3_0 :C_4_0 :C_5_0 :C_5_1 :C_9_0 :C_9_1 :C_11_0"/>

    <connection from="EC" to="CN" fromLane="0" toLane="0" via=":C_4_0" tl="C" linkIndex="4" dir="r" state="o"/>
    <connection from="EC" to="CW" fromLane="0" toLane="0" via=":C_5_0" tl="C" linkIndex="5" dir="s" state="o"/>
    <connection from="EC" to="CW" fromLane="1" toLane="1" via=":C_5_1" tl="C" linkIndex="6" dir="s" state="o"/>
    <connection from="EC" to="CS" fromLane="1" toLane="1" via=":C_7_0" tl="C" linkIndex="7" dir="l" state="o"/>
    <connection from="NC" to="CW" fromLane="0" toLane="0" via=":C_0_0" tl="C" linkIndex="0" dir="r" state="O"/>
    <connection from="NC" to="CS" fromLane="0" toLane="0" via=":C_1_0" tl="C" linkIndex="1" dir="s" state="O"/>
    <connection from="NC" to="CS" fromLane="1" toLane="1" via=":C_1_1" tl="C" linkIndex="2" dir="s" state="O"/>
    <connection from="NC" to="CE" fromLane="1" toLane="1" via=":C_3_0" tl="C" linkIndex="3" dir="l" state="o"/>
    <connection from="SC" to="CE" fromLane="0" toLane="0" via=":C_8_0" tl="C" linkIndex="8" dir="r" state="O"/>
    <connection from="SC" to="CN" fromLane="0" toLane="0" via=":C_9_0" tl="C" linkIndex="9" dir="s" state="O"/>
    <connection from="SC" to="CN" fromLane="1" toLane="1" via=":C_9_1" tl="C" linkIndex="10" dir="s" state="O"/>
    <connection from="SC" to="CW" fromLane="1" toLane="1" via=":C_11_0" tl="C" linkIndex="11" dir="l" state="o"/>
    <connection from="WC" to="CS" fromLane="0" toLane="0" via=":C_12_0" tl="C" linkIndex="12" dir="r" state="o"/>
    <connection from="WC" to="CE" fromLane="0" toLane="0" via=":C_13_0" tl="C" linkIndex="13" dir="s" state="o"/>
    <connection from="WC" to="CE" fromLane="1" toLane="1" via=":C_13_1" tl="C" linkIndex="14" dir="s" state="o"/>
    <connection from="WC" to="CN" fromLane="1" toLane="1" via=":C_15_0" tl="C" linkIndex="15" dir="l" state="o"/>

    <connection from=":C_0" to="CW" fromLane="0" toLane="0" dir="r" state="M"/>
    <connection from=":C_1" to="CS" fromLane="0" toLane="0" dir="s" state="M"/>
    <connection from=":C_1" to="CS" fromLane="1" toLane="1" dir="s" state="M"/>
    <connection from=":C_3" to="CE" fromLane="0" toLane="1" via=":C_16_0" dir="l" state="m"/>
    <connection from=":C_16" to="CE" fromLane="0" toLane="1" dir="l" state="M"/>
    <connection from=":C_4" to="CN" fromLane="0" toLane="0" dir="r" state="M"/>
    <connection from=":C_5" to="CW" fromLane="0" toLane="0" dir="s" state="M"/>
    <connection from=":C_5" to="CW" fromLane="1" toLane="1" dir="s" state="M"/>
    <connection from=":C_7" to="CS" fromLane="0" toLane="1" via=":C_17_0" dir="l" state="m"/>
    <connection from=":C_17" to="CS" fromLane="0" toLane="1" dir="l" state="M"/>
    <connection from=":C_8" to="CE" fromLane="0" toLane="0" dir="r" state="M"/>
    <connection from=":C_9" to="CN" fromLane="0" toLane="0" dir="s" state="M"/>
    <connection from=":C_9" to="CN" fromLane="1" toLane="1" dir="s" state="M"/>
    <connection from=":C_11" to="CW" fromLane="0" toLane="1" via=":C_18_0" dir="l" state="m"/>
    <connection from=":C_18" to="CW" fromLane="0" toLane="1" dir="l" state="M"/>
    <connection from=":C_12" to="CS" fromLane="0" toLane="0" dir="r" state="M"/>
    <connection from=":C_13" to="CE" fromLane="0" toLane="0" dir="s" state="M"/>
    <connection from=":C_13" to="CE" fromLane="1" toLane="1" dir="s" state="M"/>
    <connection from=":C_15" to="CN" fromLane="0" toLane="1" via=":C_19_0" dir="l" state="m"/>
    <connection from=":C_19" to="CN" fromLane="0" toLane="1" dir="l" state="M"/>

</net>
