<?xml version='1.0' encoding='UTF-8'?>
<!-- generated by deduce_pois.py; PedNetworkParser reads <poi> id/type/x/y; spec fields ride along as <param>. -->
<additional>
    <poi id="poi_venue_0" type="venue" x="400.0" y="332.6" color="255,80,80" layer="10">
        <param key="kind" value="venue"/>
        <param key="edge" value="C2D2"/>
        <param key="weight" value="0.9738"/>
        <param key="capacity" value="200"/>
        <param key="land_use" value="commercial"/>
    </poi>
    <poi id="poi_venue_1" type="venue" x="332.6" y="400.0" color="255,80,80" layer="10">
        <param key="kind" value="venue"/>
        <param key="edge" value="C3C2"/>
        <param key="weight" value="0.9738"/>
        <param key="capacity" value="200"/>
        <param key="land_use" value="commercial"/>
    </poi>
    <poi id="poi_venue_2" type="venue" x="400.0" y="347.4" color="255,80,80" layer="10">
        <param key="kind" value="venue"/>
        <param key="edge" value="D2C2"/>
        <param key="weight" value="1.0"/>
        <param key="capacity" value="199"/>
        <param key="land_use" value="commercial"/>
    </poi>
    <poi id="poi_venue_3" type="venue" x="467.4" y="400.0" color="255,80,80" layer="10">
        <param key="kind" value="venue"/>
        <param key="edge" value="D2D3"/>
        <param key="weight" value="0.9738"/>
        <param key="capacity" value="199"/>
        <param key="land_use" value="commercial"/>
    </poi>
    <poi id="poi_venue_4" type="venue" x="400.0" y="452.6" color="255,80,80" layer="10">
        <param key="kind" value="venue"/>
        <param key="edge" value="C3D3"/>
        <param key="weight" value="1.0"/>
        <param key="capacity" value="199"/>
        <param key="land_use" value="commercial"/>
    </poi>
    <poi id="poi_venue_5" type="venue" x="400.0" y="467.4" color="255,80,80" layer="10">
        <param key="kind" value="venue"/>
        <param key="edge" value="D3C3"/>
        <param key="weight" value="0.9738"/>
        <param key="capacity" value="199"/>
        <param key="land_use" value="commercial"/>
    </poi>
    <poi id="poi_venue_6" type="venue" x="347.4" y="400.0" color="255,80,80" layer="10">
        <param key="kind" value="venue"/>
        <param key="edge" value="C2C3"/>
        <param key="weight" value="1.0"/>
        <param key="capacity" value="199"/>
        <param key="land_use" value="commercial"/>
    </poi>
    <poi id="poi_venue_7" type="venue" x="452.6" y="400.0" color="255,80,80" layer="10">
        <param key="kind" value="venue"/>
        <param key="edge" value="D3D2"/>
        <param key="weight" value="1.0"/>
        <param key="capacity" value="199"/>
        <param key="land_use" value="commercial"/>
    </poi>
    <poi id="poi_transit_stop_0" type="transit_stop" x="265.12" y="332.6" color="255,200,40" layer="10">
        <param key="kind" value="transit_stop"/>
        <param key="edge" value="B2C2"/>
        <param key="weight" value="0.7698"/>
        <param key="land_use" value="transit"/>
    </poi>
    <poi id="poi_transit_stop_1" type="transit_stop" x="294.88" y="347.4" color="255,200,40" layer="10">
        <param key="kind" value="transit_stop"/>
        <param key="edge" value="C2B2"/>
        <param key="weight" value="0.7934"/>
        <param key="land_use" value="transit"/>
    </poi>
    <poi id="poi_transit_stop_2" type="transit_stop" x="332.6" y="534.88" color="255,200,40" layer="10">
        <param key="kind" value="transit_stop"/>
        <param key="edge" value="C4C3"/>
        <param key="weight" value="0.7698"/>
        <param key="land_use" value="transit"/>
    </poi>
    <poi id="poi_transit_stop_3" type="transit_stop" x="452.6" y="294.88" color="255,200,40" layer="10">
        <param key="kind" value="transit_stop"/>
        <param key="edge" value="D2D1"/>
        <param key="weight" value="0.7934"/>
        <param key="land_use" value="transit"/>
    </poi>
    <poi id="poi_transit_stop_4" type="transit_stop" x="534.88" y="347.4" color="255,200,40" layer="10">
        <param key="kind" value="transit_stop"/>
        <param key="edge" value="E2D2"/>
        <param key="weight" value="0.7934"/>
        <param key="land_use" value="transit"/>
    </poi>
    <poi id="poi_building_entrance_0" type="building_entrance" x="692.6" y="746.24" color="80,160,255" layer="10">
        <param key="kind" value="building_entrance"/>
        <param key="edge" value="top5F5"/>
        <param key="weight" value="0.0066"/>
        <param key="facing" value="-1.0,-0.0"/>
        <param key="land_use" value="residential"/>
    </poi>
    <poi id="poi_building_entrance_1" type="building_entrance" x="572.6" y="746.24" color="80,160,255" layer="10">
        <param key="kind" value="building_entrance"/>
        <param key="edge" value="top4E5"/>
        <param key="weight" value="0.0361"/>
        <param key="facing" value="-1.0,-0.0"/>
        <param key="land_use" value="residential"/>
    </poi>
    <poi id="poi_building_entrance_2" type="building_entrance" x="452.6" y="746.24" color="80,160,255" layer="10">
        <param key="kind" value="building_entrance"/>
        <param key="edge" value="top3D5"/>
        <param key="weight" value="0.0557"/>
        <param key="facing" value="-1.0,-0.0"/>
        <param key="land_use" value="residential"/>
    </poi>
    <poi id="poi_building_entrance_3" type="building_entrance" x="212.6" y="746.24" color="80,160,255" layer="10">
        <param key="kind" value="building_entrance"/>
        <param key="edge" value="top1B5"/>
        <param key="weight" value="0.0295"/>
        <param key="facing" value="-1.0,-0.0"/>
        <param key="land_use" value="residential"/>
    </poi>
    <poi id="poi_building_entrance_4" type="building_entrance" x="92.6" y="746.24" color="80,160,255" layer="10">
        <param key="kind" value="building_entrance"/>
        <param key="edge" value="top0A5"/>
        <param key="weight" value="0.0"/>
        <param key="facing" value="-1.0,-0.0"/>
        <param key="land_use" value="residential"/>
    </poi>
    <poi id="poi_building_entrance_5" type="building_entrance" x="746.24" y="707.4" color="80,160,255" layer="10">
        <param key="kind" value="building_entrance"/>
        <param key="edge" value="right5F5"/>
        <param key="weight" value="0.0"/>
        <param key="facing" value="0.0,1.0"/>
        <param key="land_use" value="residential"/>
    </poi>
    <poi id="poi_building_entrance_6" type="building_entrance" x="746.24" y="587.4" color="80,160,255" layer="10">
        <param key="kind" value="building_entrance"/>
        <param key="edge" value="right4F4"/>
        <param key="weight" value="0.0295"/>
        <param key="facing" value="0.0,1.0"/>
        <param key="land_use" value="residential"/>
    </poi>
    <poi id="poi_building_entrance_7" type="building_entrance" x="746.24" y="467.4" color="80,160,255" layer="10">
        <param key="kind" value="building_entrance"/>
        <param key="edge" value="right3F3"/>
        <param key="weight" value="0.0492"/>
        <param key="facing" value="0.0,1.0"/>
        <param key="land_use" value="residential"/>
    </poi>
    <poi id="poi_building_entrance_8" type="building_entrance" x="746.24" y="347.4" color="80,160,255" layer="10">
        <param key="kind" value="building_entrance"/>
        <param key="edge" value="right2F2"/>
        <param key="weight" value="0.0557"/>
        <param key="facing" value="0.0,1.0"/>
        <param key="land_use" value="residential"/>
    </poi>
    <poi id="poi_building_entrance_9" type="building_entrance" x="746.24" y="227.4" color="80,160,255" layer="10">
        <param key="kind" value="building_entrance"/>
        <param key="edge" value="right1F1"/>
        <param key="weight" value="0.0361"/>
        <param key="facing" value="0.0,1.0"/>
        <param key="land_use" value="residential"/>
    </poi>
    <poi id="poi_building_entrance_10" type="building_entrance" x="746.24" y="107.4" color="80,160,255" layer="10">
        <param key="kind" value="building_entrance"/>
        <param key="edge" value="right0F0"/>
        <param key="weight" value="0.0066"/>
        <param key="facing" value="0.0,1.0"/>
        <param key="land_use" value="residential"/>
    </poi>
    <poi id="poi_building_entrance_11" type="building_entrance" x="53.76" y="692.6" color="80,160,255" layer="10">
        <param key="kind" value="building_entrance"/>
        <param key="edge" value="left5A5"/>
        <param key="weight" value="0.0066"/>
        <param key="facing" value="0.0,-1.0"/>
        <param key="land_use" value="residential"/>
    </poi>
    <poi id="poi_building_entrance_12" type="building_entrance" x="53.76" y="572.6" color="80,160,255" layer="10">
        <param key="kind" value="building_entrance"/>
        <param key="edge" value="left4A4"/>
        <param key="weight" value="0.0361"/>
        <param key="facing" value="0.0,-1.0"/>
        <param key="land_use" value="residential"/>
    </poi>
    <poi id="poi_building_entrance_13" type="building_entrance" x="53.76" y="452.6" color="80,160,255" layer="10">
        <param key="kind" value="building_entrance"/>
        <param key="edge" value="left3A3"/>
        <param key="weight" value="0.0557"/>
        <param key="facing" value="0.0,-1.0"/>
        <param key="land_use" value="residential"/>
    </poi>
    <poi id="poi_building_entrance_14" type="building_entrance" x="53.76" y="212.6" color="80,160,255" layer="10">
        <param key="kind" value="building_entrance"/>
        <param key="edge" value="left1A1"/>
        <param key="weight" value="0.0295"/>
        <param key="facing" value="0.0,-1.0"/>
        <param key="land_use" value="residential"/>
    </poi>
    <poi id="poi_building_entrance_15" type="building_entrance" x="53.76" y="92.6" color="80,160,255" layer="10">
        <param key="kind" value="building_entrance"/>
        <param key="edge" value="left0A0"/>
        <param key="weight" value="0.0"/>
        <param key="facing" value="0.0,-1.0"/>
        <param key="land_use" value="residential"/>
    </poi>
    <poi id="poi_building_entrance_16" type="building_entrance" x="707.4" y="53.76" color="80,160,255" layer="10">
        <param key="kind" value="building_entrance"/>
        <param key="edge" value="bottom5F0"/>
        <param key="weight" value="0.0"/>
        <param key="facing" value="1.0,-0.0"/>
        <param key="land_use" value="residential"/>
    </poi>
    <poi id="poi_dwell_spot_0" type="dwell_spot" x="449.6" y="692.81" color="80,220,120" layer="10">
        <param key="kind" value="dwell_spot"/>
        <param key="edge" value=":D5_w3"/>
        <param key="weight" value="0.3044"/>
        <param key="capacity" value="5"/>
        <param key="land_use" value="open_space"/>
    </poi>
    <poi id="poi_dwell_spot_1" type="dwell_spot" x="689.6" y="452.81" color="80,220,120" layer="10">
        <param key="kind" value="dwell_spot"/>
        <param key="edge" value=":F3_w3"/>
        <param key="weight" value="0.3044"/>
        <param key="capacity" value="5"/>
        <param key="land_use" value="open_space"/>
    </poi>
    <poi id="poi_dwell_spot_2" type="dwell_spot" x="209.6" y="692.81" color="80,220,120" layer="10">
        <param key="kind" value="dwell_spot"/>
        <param key="edge" value=":B5_w3"/>
        <param key="weight" value="0.2286"/>
        <param key="capacity" value="5"/>
        <param key="land_use" value="open_space"/>
    </poi>
    <poi id="poi_dwell_spot_3" type="dwell_spot" x="572.81" y="590.4" color="80,220,120" layer="10">
        <param key="kind" value="dwell_spot"/>
        <param key="edge" value=":E4_w0"/>
        <param key="weight" value="0.3965"/>
        <param key="capacity" value="5"/>
        <param key="land_use" value="open_space"/>
    </poi>
    <poi id="poi_dwell_spot_4" type="dwell_spot" x="587.19" y="569.6" color="80,220,120" layer="10">
        <param key="kind" value="dwell_spot"/>
        <param key="edge" value=":E4_w2"/>
        <param key="weight" value="0.3965"/>
        <param key="capacity" value="5"/>
        <param key="land_use" value="open_space"/>
    </poi>
    <poi id="poi_dwell_spot_5" type="dwell_spot" x="587.19" y="689.6" color="80,220,120" layer="10">
        <param key="kind" value="dwell_spot"/>
        <param key="edge" value=":E5_w2"/>
        <param key="weight" value="0.2286"/>
        <param key="capacity" value="5"/>
        <param key="land_use" value="open_space"/>
    </poi>
    <poi id="poi_dwell_spot_6" type="dwell_spot" x="689.6" y="212.81" color="80,220,120" layer="10">
        <param key="kind" value="dwell_spot"/>
        <param key="edge" value=":F1_w3"/>
        <param key="weight" value="0.2286"/>
        <param key="capacity" value="5"/>
        <param key="land_use" value="open_space"/>
    </poi>
    <poi id="poi_dwell_spot_7" type="dwell_spot" x="692.81" y="590.4" color="80,220,120" layer="10">
        <param key="kind" value="dwell_spot"/>
        <param key="edge" value=":F4_w0"/>
        <param key="weight" value="0.2286"/>
        <param key="capacity" value="5"/>
        <param key="land_use" value="open_space"/>
    </poi>
    <poi id="poi_dwell_spot_8" type="dwell_spot" x="710.4" y="707.19" color="80,220,120" layer="10">
        <param key="kind" value="dwell_spot"/>
        <param key="edge" value=":F5_w1"/>
        <param key="weight" value="0.1075"/>
        <param key="capacity" value="5"/>
        <param key="land_use" value="open_space"/>
    </poi>
    <poi id="poi_parking_access_0" type="parking_access" x="107.4" y="160.0" color="180,120,255" layer="10">
        <param key="kind" value="parking_access"/>
        <param key="edge" value="A0A1"/>
        <param key="weight" value="0.2536"/>
        <param key="land_use" value="parking"/>
    </poi>
    <poi id="poi_parking_access_1" type="parking_access" x="160.0" y="92.6" color="180,120,255" layer="10">
        <param key="kind" value="parking_access"/>
        <param key="edge" value="A0B0"/>
        <param key="weight" value="0.2273"/>
        <param key="land_use" value="parking"/>
    </poi>
    <poi id="poi_parking_access_2" type="parking_access" x="92.6" y="160.0" color="180,120,255" layer="10">
        <param key="kind" value="parking_access"/>
        <param key="edge" value="A1A0"/>
        <param key="weight" value="0.2273"/>
        <param key="land_use" value="parking"/>
    </poi>
    <poi id="poi_parking_access_3" type="parking_access" x="107.4" y="280.0" color="180,120,255" layer="10">
        <param key="kind" value="parking_access"/>
        <param key="edge" value="A1A2"/>
        <param key="weight" value="0.4216"/>
        <param key="land_use" value="parking"/>
    </poi>
    <poi id="poi_parking_access_4" type="parking_access" x="160.0" y="212.6" color="180,120,255" layer="10">
        <param key="kind" value="parking_access"/>
        <param key="edge" value="A1B1"/>
        <param key="weight" value="0.3334"/>
        <param key="land_use" value="parking"/>
    </poi>
    <poi id="poi_parking_access_5" type="parking_access" x="92.6" y="280.0" color="180,120,255" layer="10">
        <param key="kind" value="parking_access"/>
        <param key="edge" value="A2A1"/>
        <param key="weight" value="0.3953"/>
        <param key="land_use" value="parking"/>
    </poi>
    <poi id="poi_parking_access_6" type="parking_access" x="107.4" y="400.0" color="180,120,255" layer="10">
        <param key="kind" value="parking_access"/>
        <param key="edge" value="A2A3"/>
        <param key="weight" value="0.4845"/>
        <param key="land_use" value="parking"/>
    </poi>
    <poi id="poi_parking_access_7" type="parking_access" x="160.0" y="332.6" color="180,120,255" layer="10">
        <param key="kind" value="parking_access"/>
        <param key="edge" value="A2B2"/>
        <param key="weight" value="0.42"/>
        <param key="land_use" value="parking"/>
    </poi>
    <poi id="poi_parking_access_8" type="parking_access" x="92.6" y="400.0" color="180,120,255" layer="10">
        <param key="kind" value="parking_access"/>
        <param key="edge" value="A3A2"/>
        <param key="weight" value="0.4531"/>
        <param key="land_use" value="parking"/>
    </poi>
    <poi id="poi_parking_access_9" type="parking_access" x="107.4" y="520.0" color="180,120,255" layer="10">
        <param key="kind" value="parking_access"/>
        <param key="edge" value="A3A4"/>
        <param key="weight" value="0.4216"/>
        <param key="land_use" value="parking"/>
    </poi>
    <poi id="poi_parking_access_10" type="parking_access" x="160.0" y="452.6" color="180,120,255" layer="10">
        <param key="kind" value="parking_access"/>
        <param key="edge" value="A3B3"/>
        <param key="weight" value="0.4409"/>
        <param key="land_use" value="parking"/>
    </poi>
    <poi id="poi_parking_access_11" type="parking_access" x="92.6" y="520.0" color="180,120,255" layer="10">
        <param key="kind" value="parking_access"/>
        <param key="edge" value="A4A3"/>
        <param key="weight" value="0.3953"/>
        <param key="land_use" value="parking"/>
    </poi>
    <poi id="poi_parking_access_12" type="parking_access" x="107.4" y="640.0" color="180,120,255" layer="10">
        <param key="kind" value="parking_access"/>
        <param key="edge" value="A4A5"/>
        <param key="weight" value="0.2536"/>
        <param key="land_use" value="parking"/>
    </poi>
    <poi id="poi_parking_access_13" type="parking_access" x="160.0" y="572.6" color="180,120,255" layer="10">
        <param key="kind" value="parking_access"/>
        <param key="edge" value="A4B4"/>
        <param key="weight" value="0.3544"/>
        <param key="land_use" value="parking"/>
    </poi>
    <poi id="poi_parking_access_14" type="parking_access" x="92.6" y="640.0" color="180,120,255" layer="10">
        <param key="kind" value="parking_access"/>
        <param key="edge" value="A5A4"/>
        <param key="weight" value="0.2273"/>
        <param key="land_use" value="parking"/>
    </poi>
    <poi id="poi_parking_access_15" type="parking_access" x="160.0" y="692.6" color="180,120,255" layer="10">
        <param key="kind" value="parking_access"/>
        <param key="edge" value="A5B5"/>
        <param key="weight" value="0.2536"/>
        <param key="land_use" value="parking"/>
    </poi>
    <poi id="poi_parking_access_16" type="parking_access" x="160.0" y="107.4" color="180,120,255" layer="10">
        <param key="kind" value="parking_access"/>
        <param key="edge" value="B0A0"/>
        <param key="weight" value="0.2536"/>
        <param key="land_use" value="parking"/>
    </poi>
    <poi id="poi_parking_access_17" type="parking_access" x="227.4" y="160.0" color="180,120,255" layer="10">
        <param key="kind" value="parking_access"/>
        <param key="edge" value="B0B1"/>
        <param key="weight" value="0.3544"/>
        <param key="land_use" value="parking"/>
    </poi>
    <poi id="poi_parking_access_18" type="parking_access" x="280.0" y="92.6" color="180,120,255" layer="10">
        <param key="kind" value="parking_access"/>
        <param key="edge" value="B0C0"/>
        <param key="weight" value="0.3953"/>
        <param key="land_use" value="parking"/>
    </poi>
    <poi id="poi_parking_access_19" type="parking_access" x="160.0" y="227.4" color="180,120,255" layer="10">
        <param key="kind" value="parking_access"/>
        <param key="edge" value="B1A1"/>
        <param key="weight" value="0.3544"/>
        <param key="land_use" value="parking"/>
    </poi>
    <poi id="poi_parking_access_20" type="parking_access" x="212.6" y="160.0" color="180,120,255" layer="10">
        <param key="kind" value="parking_access"/>
        <param key="edge" value="B1B0"/>
        <param key="weight" value="0.3334"/>
        <param key="land_use" value="parking"/>
    </poi>
    <poi id="poi_parking_access_21" type="parking_access" x="227.4" y="280.0" color="180,120,255" layer="10">
        <param key="kind" value="parking_access"/>
        <param key="edge" value="B1B2"/>
        <param key="weight" value="0.5729"/>
        <param key="land_use" value="parking"/>
    </poi>
    <poi id="poi_parking_access_22" type="parking_access" x="280.0" y="212.6" color="180,120,255" layer="10">
        <param key="kind" value="parking_access"/>
        <param key="edge" value="B1C1"/>
        <param key="weight" value="0.552"/>
        <param key="land_use" value="parking"/>
    </poi>
    <poi id="poi_parking_access_23" type="parking_access" x="160.0" y="347.4" color="180,120,255" layer="10">
        <param key="kind" value="parking_access"/>
        <param key="edge" value="B2A2"/>
        <param key="weight" value="0.4409"/>
        <param key="land_use" value="parking"/>
    </poi>
    <poi id="poi_parking_access_24" type="parking_access" x="212.6" y="280.0" color="180,120,255" layer="10">
        <param key="kind" value="parking_access"/>
        <param key="edge" value="B2B1"/>
        <param key="weight" value="0.552"/>
        <param key="land_use" value="parking"/>
    </poi>
    <poi id="poi_parking_access_25" type="parking_access" x="227.4" y="400.0" color="180,120,255" layer="10">
        <param key="kind" value="parking_access"/>
        <param key="edge" value="B2B3"/>
        <param key="weight" value="0.6583"/>
        <param key="land_use" value="parking"/>
    </poi>
    <poi id="poi_parking_access_26" type="parking_access" x="280.0" y="332.6" color="180,120,255" layer="10">
        <param key="kind" value="parking_access"/>
        <param key="edge" value="B2C2"/>
        <param key="weight" value="0.6842"/>
        <param key="land_use" value="parking"/>
    </poi>
    <poi id="poi_parking_access_27" type="parking_access" x="160.0" y="467.4" color="180,120,255" layer="10">
        <param key="kind" value="parking_access"/>
        <param key="edge" value="B3A3"/>
        <param key="weight" value="0.42"/>
        <param key="land_use" value="parking"/>
    </poi>
    <poi id="poi_parking_access_28" type="parking_access" x="212.6" y="400.0" color="180,120,255" layer="10">
        <param key="kind" value="parking_access"/>
        <param key="edge" value="B3B2"/>
        <param key="weight" value="0.6374"/>
        <param key="land_use" value="parking"/>
    </poi>
    <poi id="poi_parking_access_29" type="parking_access" x="227.4" y="520.0" color="180,120,255" layer="10">
        <param key="kind" value="parking_access"/>
        <param key="edge" value="B3B4"/>
        <param key="weight" value="0.5729"/>
        <param key="land_use" value="parking"/>
    </poi>
    <poi id="poi_parking_access_30" type="parking_access" x="280.0" y="452.6" color="180,120,255" layer="10">
        <param key="kind" value="parking_access"/>
        <param key="edge" value="B3C3"/>
        <param key="weight" value="0.7052"/>
        <param key="land_use" value="parking"/>
    </poi>
    <poi id="poi_parking_access_31" type="parking_access" x="160.0" y="587.4" color="180,120,255" layer="10">
        <param key="kind" value="parking_access"/>
        <param key="edge" value="B4A4"/>
        <param key="weight" value="0.3334"/>
        <param key="land_use" value="parking"/>
    </poi>
    <poi id="poi_parking_access_32" type="parking_access" x="212.6" y="520.0" color="180,120,255" layer="10">
        <param key="kind" value="parking_access"/>
        <param key="edge" value="B4B3"/>
        <param key="weight" value="0.552"/>
        <param key="land_use" value="parking"/>
    </poi>
    <poi id="poi_parking_access_33" type="parking_access" x="227.4" y="640.0" color="180,120,255" layer="10">
        <param key="kind" value="parking_access"/>
        <param key="edge" value="B4B5"/>
        <param key="weight" value="0.3544"/>
        <param key="land_use" value="parking"/>
    </poi>
    <poi id="poi_parking_access_34" type="parking_access" x="280.0" y="572.6" color="180,120,255" layer="10">
        <param key="kind" value="parking_access"/>
        <param key="edge" value="B4C4"/>
        <param key="weight" value="0.5729"/>
        <param key="land_use" value="parking"/>
    </poi>
    <poi id="poi_parking_access_35" type="parking_access" x="160.0" y="707.4" color="180,120,255" layer="10">
        <param key="kind" value="parking_access"/>
        <param key="edge" value="B5A5"/>
        <param key="weight" value="0.2273"/>
        <param key="land_use" value="parking"/>
    </poi>
    <poi id="poi_parking_access_36" type="parking_access" x="212.6" y="640.0" color="180,120,255" layer="10">
        <param key="kind" value="parking_access"/>
        <param key="edge" value="B5B4"/>
        <param key="weight" value="0.3334"/>
        <param key="land_use" value="parking"/>
    </poi>
    <poi id="poi_parking_access_37" type="parking_access" x="280.0" y="692.6" color="180,120,255" layer="10">
        <param key="kind" value="parking_access"/>
        <param key="edge" value="B5C5"/>
        <param key="weight" value="0.4216"/>
        <param key="land_use" value="parking"/>
    </poi>
    <poi id="poi_parking_access_38" type="parking_access" x="280.0" y="107.4" color="180,120,255" layer="10">
        <param key="kind" value="parking_access"/>
        <param key="edge" value="C0B0"/>
        <param key="weight" value="0.4216"/>
        <param key="land_use" value="parking"/>
    </poi>
    <poi id="poi_parking_access_39" type="parking_access" x="347.4" y="160.0" color="180,120,255" layer="10">
        <param key="kind" value="parking_access"/>
        <param key="edge" value="C0C1"/>
        <param key="weight" value="0.4409"/>
        <param key="land_use" value="parking"/>
    </poi>
    <poi id="poi_parking_access_40" type="parking_access" x="400.0" y="92.6" color="180,120,255" layer="10">
        <param key="kind" value="parking_access"/>
        <param key="edge" value="C0D0"/>
        <param key="weight" value="0.4531"/>
        <param key="land_use" value="parking"/>
    </poi>
    <poi id="poi_parking_access_41" type="parking_access" x="280.0" y="227.4" color="180,120,255" layer="10">
        <param key="kind" value="parking_access"/>
        <param key="edge" value="C1B1"/>
        <param key="weight" value="0.5729"/>
        <param key="land_use" value="parking"/>
    </poi>
    <poi id="poi_parking_access_42" type="parking_access" x="332.6" y="160.0" color="180,120,255" layer="10">
        <param key="kind" value="parking_access"/>
        <param key="edge" value="C1C0"/>
        <param key="weight" value="0.42"/>
        <param key="land_use" value="parking"/>
    </poi>
    <poi id="poi_parking_access_43" type="parking_access" x="347.4" y="280.0" color="180,120,255" layer="10">
        <param key="kind" value="parking_access"/>
        <param key="edge" value="C1C2"/>
        <param key="weight" value="0.7052"/>
        <param key="land_use" value="parking"/>
    </poi>
    <poi id="poi_parking_access_44" type="parking_access" x="400.0" y="212.6" color="180,120,255" layer="10">
        <param key="kind" value="parking_access"/>
        <param key="edge" value="C1D1"/>
        <param key="weight" value="0.6374"/>
        <param key="land_use" value="parking"/>
    </poi>
    <poi id="poi_parking_access_45" type="parking_access" x="280.0" y="347.4" color="180,120,255" layer="10">
        <param key="kind" value="parking_access"/>
        <param key="edge" value="C2B2"/>
        <param key="weight" value="0.7052"/>
        <param key="land_use" value="parking"/>
    </poi>
    <poi id="poi_parking_access_46" type="parking_access" x="332.6" y="280.0" color="180,120,255" layer="10">
        <param key="kind" value="parking_access"/>
        <param key="edge" value="C2C1"/>
        <param key="weight" value="0.6842"/>
        <param key="land_use" value="parking"/>
    </poi>
    <poi id="poi_parking_access_47" type="parking_access" x="347.4" y="400.0" color="180,120,255" layer="10">
        <param key="kind" value="parking_access"/>
        <param key="edge" value="C2C3"/>
        <param key="weight" value="0.8"/>
        <param key="land_use" value="parking"/>
    </poi>
    <poi id="poi_parking_access_48" type="parking_access" x="400.0" y="332.6" color="180,120,255" layer="10">
        <param key="kind" value="parking_access"/>
        <param key="edge" value="C2D2"/>
        <param key="weight" value="0.779"/>
        <param key="land_use" value="parking"/>
    </poi>
    <poi id="poi_parking_access_49" type="parking_access" x="280.0" y="467.4" color="180,120,255" layer="10">
        <param key="kind" value="parking_access"/>
        <param key="edge" value="C3B3"/>
        <param key="weight" value="0.6842"/>
        <param key="land_use" value="parking"/>
    </poi>
    <poi id="poi_parking_access_50" type="parking_access" x="332.6" y="400.0" color="180,120,255" layer="10">
        <param key="kind" value="parking_access"/>
        <param key="edge" value="C3C2"/>
        <param key="weight" value="0.779"/>
        <param key="land_use" value="parking"/>
    </poi>
    <poi id="poi_parking_access_51" type="parking_access" x="347.4" y="520.0" color="180,120,255" layer="10">
        <param key="kind" value="parking_access"/>
        <param key="edge" value="C3C4"/>
        <param key="weight" value="0.7052"/>
        <param key="land_use" value="parking"/>
    </poi>
    <poi id="poi_parking_access_52" type="parking_access" x="400.0" y="452.6" color="180,120,255" layer="10">
        <param key="kind" value="parking_access"/>
        <param key="edge" value="C3D3"/>
        <param key="weight" value="0.8"/>
        <param key="land_use" value="parking"/>
    </poi>
    <poi id="poi_parking_access_53" type="parking_access" x="280.0" y="587.4" color="180,120,255" layer="10">
        <param key="kind" value="parking_access"/>
        <param key="edge" value="C4B4"/>
        <param key="weight" value="0.552"/>