<?xml version="1.0" encoding="UTF-8"?>

<!-- generated on 2026-07-17 15:10:29 by Eclipse SUMO netconvert Version 1.20.0
<configuration xmlns:xsi="http://www.w3.org/2001/XMLSchema-instance" xsi:noNamespaceSchemaLocation="http://sumo.dlr.de/xsd/netconvertConfiguration.xsd">

    <input>
        <node-files value="nodes.nod.xml"/>
        <edge-files value="edges.edg.xml"/>
    </input>

    <output>
        <output-file value="net.net.xml"/>
    </output>

    <junctions>
        <no-turnarounds value="true"/>
    </junctions>

</configuration>
-->

<net version="1.20" junctionCornerDetail="5" limitTurnSpeed="5.50" xmlns:xsi="http://www.w3.org/2001/XMLSchema-instance" xsi:noNamespaceSchemaLocation="http://sumo.dlr.de/xsd/net_file.xsd">

    <location netOffset="0.00,350.00" convBoundary="0.00,0.00,2100.00,350.00" origBoundary="0.00,-350.00,2100.00,0.00" projParameter="!"/>

    <edge id=":J_0" function="internal">
        <lane id=":J_0_0" index="0" speed="11.09" length="7.52" shape="596.48,345.20 598.63,345.00 600.01,344.39 601.27,343.39 603.05,342.01"/>
        <lane id=":J_0_1" index="1" speed="12.40" length="9.48" shape="596.48,348.40 599.21,348.18 600.99,347.50 602.63,346.33 604.88,344.63"/>
    </edge>
    <edge id=":J_2" function="internal">
        <lane id=":J_2_0" index="0" speed="9.45" length="9.59" shape="596.48,348.40 606.07,348.40"/>
    </edge>
    <edge id=":K_0" function="internal">
        <lane id=":K_0_0" index="0" speed="6.18" length="5.90" shape="1097.25,-3.93 1098.62,-4.65 1100.00,-4.90 1101.38,-4.65 1102.75,-3.93"/>
        <lane id=":K_0_1" index="1" speed="3.96" length="1.97" shape="1099.08,-1.31 1099.54,-1.55 1100.00,-1.63 1100.46,-1.55 1100.92,-1.31"/>
    </edge>
    <edge id=":M_0" function="internal">
        <lane id=":M_0_0" index="0" speed="11.09" length="8.50" shape="1596.95,342.01 1598.73,343.39 1599.99,344.39 1601.37,345.00 1603.52,345.20"/>
        <lane id=":M_0_1" index="1" speed="12.40" length="8.50" shape="1595.12,344.63 1597.37,346.33 1599.01,347.50 1600.79,348.18 1603.52,348.40"/>
    </edge>
    <edge id=":M_2" function="internal">
        <lane id=":M_2_0" index="0" speed="9.45" length="9.59" shape="1593.93,348.40 1603.52,348.40"/>
    </edge>

    <edge id="e_dest" from="M" to="S" priority="-1">
        <lane id="e_dest_0" index="0" speed="13.89" length="496.48" shape="1603.52,345.20 2100.00,345.20"/>
        <lane id="e_dest_1" index="1" speed="13.89" length="496.48" shape="1603.52,348.40 2100.00,348.40"/>
    </edge>
    <edge id="e_det1" from="J" to="K" priority="-1">
        <lane id="e_det1_0" index="0" speed="13.89" length="603.25" shape="603.05,342.01 1097.25,-3.93"/>
        <lane id="e_det1_1" index="1" speed="13.89" length="603.25" shape="604.88,344.63 1099.08,-1.31"/>
    </edge>
    <edge id="e_det2" from="K" to="M" priority="-1">
        <lane id="e_det2_0" index="0" speed="13.89" length="603.25" shape="1102.75,-3.93 1596.95,342.01"/>
        <lane id="e_det2_1" index="1" speed="13.89" length="603.25" shape="1100.92,-1.31 1595.12,344.63"/>
    </edge>
    <edge id="e_short" from="J" to="M" priority="-1">
        <lane id="e_short_0" index="0" speed="5.00" length="987.86" shape="606.07,348.40 1593.93,348.40"/>
    </edge>
    <edge id="e_src" from="O" to="J" priority="-1">
        <lane id="e_src_0" index="0" speed="13.89" length="596.48" shape="0.00,345.20 596.48,345.20"/>
        <lane id="e_src_1" index="1" speed="13.89" length="596.48" shape="0.00,348.40 596.48,348.40"/>
    </edge>

    <junction id="J" type="priority" x="600.00" y="350.00" incLanes="e_src_0 e_src_1" intLanes=":J_0_0 :J_0_1 :J_2_0" shape="606.07,350.00 606.07,346.80 605.37,346.70 605.25,346.58 605.28,346.42 605.47,346.20 605.80,345.94 602.13,340.70 600.22,342.26 599.52,342.83 598.78,343.25 597.82,343.51 596.48,343.60 596.48,350.00">
        <request index="0" response="000" foes="000" cont="0"/>
        <request index="1" response="000" foes="000" cont="0"/>
        <request index="2" response="000" foes="000" cont="0"/>
    </junction>
    <junction id="K" type="priority" x="1100.00" y="0.00" incLanes="e_det1_0 e_det1_1" intLanes=":K_0_0 :K_0_1" shape="1100.00,-0.00 1103.67,-5.24 1101.22,-6.38 1100.00,-6.53 1098.78,-6.38 1097.55,-5.96 1096.33,-5.24">
        <request index="0" response="00" foes="00" cont="0"/>
        <request index="1" response="00" foes="00" cont="0"/>
    </junction>
    <junction id="M" type="priority" x="1600.00" y="350.00" incLanes="e_det2_0 e_det2_1 e_short_0" intLanes=":M_0_0 :M_0_1 :M_2_0" shape="1603.52,350.00 1603.52,343.60 1601.22,343.25 1600.48,342.83 1599.78,342.26 1598.97,341.54 1597.87,340.70 1594.20,345.94 1594.72,346.42 1594.75,346.58 1594.63,346.70 1594.35,346.78 1593.93,346.80 1593.93,350.00">
        <request index="0" response="000" foes="100" cont="0"/>
        <request index="1" response="000" foes="100" cont="0"/>
        <request index="2" response="011" foes="011" cont="0"/>
    </junction>
    <junction id="O" type="dead_end" x="0.00" y="350.00" incLanes="" intLanes="" shape="0.00,350.00 0.00,343.60"/>
    <junction id="S" type="dead_end" x="2100.00" y="350.00" incLanes="e_dest_0 e_dest_1" intLanes="" shape="2100.00,343.60 2100.00,350.00"/>

    <connection from="e_det1" to="e_det2" fromLane="0" toLane="0" via=":K_0_0" dir="l" state="M"/>
    <connection from="e_det1" to="e_det2" fromLane="1" toLane="1" via=":K_0_1" dir="l" state="M"/>
    <connection from="e_det2" to="e_dest" fromLane="0" toLane="0" via=":M_0_0" dir="s" state="M"/>
    <connection from="e_det2" to="e_dest" fromLane="1" toLane="1" via=":M_0_1" dir="s" state="M"/>
    <connection from="e_short" to="e_dest" fromLane="0" toLane="1" via=":M_2_0" dir="s" state="m"/>
    <connection from="e_src" to="e_det1" fromLane="0" toLane="0" via=":J_0_0" dir="R" state="M"/>
    <connection from="e_src" to="e_det1" fromLane="1" toLane="1" via=":J_0_1" dir="R" state="M"/>
    <connection from="e_src" to="e_short" fromLane="1" toLane="0" via=":J_2_0" dir="s" state="M"/>

    <connection from=":J_0" to="e_det1" fromLane="0" toLane="0" dir="R" state="M"/>
    <connection from=":J_0" to="e_det1" fromLane="1" toLane="1" dir="R" state="M"/>
    <connection from=":J_2" to="e_short" fromLane="0" toLane="0" dir="s" state="M"/>
    <connection from=":K_0" to="e_det2" fromLane="0" toLane="0" dir="l" state="M"/>
    <connection from=":K_0" to="e_det2" fromLane="1" toLane="1" dir="l" state="M"/>
    <connection from=":M_0" to="e_dest" fromLane="0" toLane="0" dir="s" state="M"/>
    <connection from=":M_0" to="e_dest" fromLane="1" toLane="1" dir="s" state="M"/>
    <connection from=":M_2" to="e_dest" fromLane="0" toLane="1" dir="s" state="M"/>

</net>
