<?xml version="1.0" encoding="UTF-8"?>

<!-- generated on 2026-07-14 08:16:47 by Eclipse SUMO netgenerate Version 1.18.0
<configuration xmlns:xsi="http://www.w3.org/2001/XMLSchema-instance" xsi:noNamespaceSchemaLocation="http://sumo.dlr.de/xsd/netgenerateConfiguration.xsd">

    <grid_network>
        <grid value="true"/>
        <grid.number value="5"/>
        <grid.length value="80"/>
        <grid.attach-length value="60"/>
    </grid_network>

    <output>
        <output-file value="net.net.xml"/>
    </output>

    <building_defaults>
        <default.lanenumber value="1"/>
    </building_defaults>

    <tls_building>
        <tls.set value="B1,B2,B3,C1,C2,C3,D1,D2,D3"/>
    </tls_building>

    <junctions>
        <no-turnarounds value="true"/>
    </junctions>

</configuration>
-->

<net version="1.16" junctionCornerDetail="5" limitTurnSpeed="5.50" xmlns:xsi="http://www.w3.org/2001/XMLSchema-instance" xsi:noNamespaceSchemaLocation="http://sumo.dlr.de/xsd/net_file.xsd">

    <location netOffset="0.00,0.00" convBoundary="0.00,0.00,440.00,440.00" origBoundary="0.00,0.00,440.00,440.00" projParameter="!"/>

    <edge id=":A0_0" function="internal">
        <lane id=":A0_0_0" index="0" speed="6.51" length="9.03" shape="58.40,67.20 58.05,64.75 57.00,63.00 55.25,61.95 52.80,61.60"/>
    </edge>
    <edge id=":A0_1" function="internal">
        <lane id=":A0_1_0" index="0" speed="13.89" length="14.40" shape="58.40,67.20 58.40,52.80"/>
    </edge>
    <edge id=":A0_2" function="internal">
        <lane id=":A0_2_0" index="0" speed="8.00" length="4.07" shape="58.40,67.20 58.95,63.35 59.04,63.20"/>
    </edge>
    <edge id=":A0_12" function="internal">
        <lane id=":A0_12_0" index="0" speed="8.00" length="10.13" shape="59.04,63.20 60.60,60.60 63.35,58.95 67.20,58.40"/>
    </edge>
    <edge id=":A0_3" function="internal">
        <lane id=":A0_3_0" index="0" speed="6.51" length="9.03" shape="67.20,61.60 64.75,61.95 63.00,63.00 61.95,64.75 61.60,67.20"/>
    </edge>
    <edge id=":A0_4" function="internal">
        <lane id=":A0_4_0" index="0" speed="13.89" length="14.40" shape="67.20,61.60 52.80,61.60"/>
    </edge>
    <edge id=":A0_5" function="internal">
        <lane id=":A0_5_0" index="0" speed="8.00" length="14.19" shape="67.20,61.60 63.35,61.05 60.60,59.40 58.95,56.65 58.40,52.80"/>
    </edge>
    <edge id=":A0_6" function="internal">
        <lane id=":A0_6_0" index="0" speed="6.51" length="9.03" shape="61.60,52.80 61.95,55.25 63.00,57.00 64.75,58.05 67.20,58.40"/>
    </edge>
    <edge id=":A0_7" function="internal">
        <lane id=":A0_7_0" index="0" speed="13.89" length="14.40" shape="61.60,52.80 61.60,67.20"/>
    </edge>
    <edge id=":A0_8" function="internal">
        <lane id=":A0_8_0" index="0" speed="8.00" length="4.07" shape="61.60,52.80 61.05,56.65 60.96,56.80"/>
    </edge>
    <edge id=":A0_13" function="internal">
        <lane id=":A0_13_0" index="0" speed="8.00" length="10.13" shape="60.96,56.80 59.40,59.40 56.65,61.05 52.80,61.60"/>
    </edge>
    <edge id=":A0_9" function="internal">
        <lane id=":A0_9_0" index="0" speed="6.51" length="9.03" shape="52.80,58.40 55.25,58.05 57.00,57.00 58.05,55.25 58.40,52.80"/>
    </edge>
    <edge id=":A0_10" function="internal">
        <lane id=":A0_10_0" index="0" speed="13.89" length="14.40" shape="52.80,58.40 67.20,58.40"/>
    </edge>
    <edge id=":A0_11" function="internal">
        <lane id=":A0_11_0" index="0" speed="8.00" length="14.19" shape="52.80,58.40 56.65,58.95 59.40,60.60 61.05,63.35 61.60,67.20"/>
    </edge>
    <edge id=":A1_0" function="internal">
        <lane id=":A1_0_0" index="0" speed="6.51" length="9.03" shape="58.40,147.20 58.05,144.75 57.00,143.00 55.25,141.95 52.80,141.60"/>
    </edge>
    <edge id=":A1_1" function="internal">
        <lane id=":A1_1_0" index="0" speed="13.89" length="14.40" shape="58.40,147.20 58.40,132.80"/>
    </edge>
    <edge id=":A1_2" function="internal">
        <lane id=":A1_2_0" index="0" speed="8.00" length="4.07" shape="58.40,147.20 58.95,143.35 59.04,143.20"/>
    </edge>
    <edge id=":A1_12" function="internal">
        <lane id=":A1_12_0" index="0" speed="8.00" length="10.13" shape="59.04,143.20 60.60,140.60 63.35,138.95 67.20,138.40"/>
    </edge>
    <edge id=":A1_3" function="internal">
        <lane id=":A1_3_0" index="0" speed="6.51" length="9.03" shape="67.20,141.60 64.75,141.95 63.00,143.00 61.95,144.75 61.60,147.20"/>
    </edge>
    <edge id=":A1_4" function="internal">
        <lane id=":A1_4_0" index="0" speed="13.89" length="14.40" shape="67.20,141.60 52.80,141.60"/>
    </edge>
    <edge id=":A1_5" function="internal">
        <lane id=":A1_5_0" index="0" speed="8.00" length="14.19" shape="67.20,141.60 63.35,141.05 60.60,139.40 58.95,136.65 58.40,132.80"/>
    </edge>
    <edge id=":A1_6" function="internal">
        <lane id=":A1_6_0" index="0" speed="6.51" length="9.03" shape="61.60,132.80 61.95,135.25 63.00,137.00 64.75,138.05 67.20,138.40"/>
    </edge>
    <edge id=":A1_7" function="internal">
        <lane id=":A1_7_0" index="0" speed="13.89" length="14.40" shape="61.60,132.80 61.60,147.20"/>
    </edge>
    <edge id=":A1_8" function="internal">
        <lane id=":A1_8_0" index="0" speed="8.00" length="4.07" shape="61.60,132.80 61.05,136.65 60.96,136.80"/>
    </edge>
    <edge id=":A1_13" function="internal">
        <lane id=":A1_13_0" index="0" speed="8.00" length="10.13" shape="60.96,136.80 59.40,139.40 56.65,141.05 52.80,141.60"/>
    </edge>
    <edge id=":A1_9" function="internal">
        <lane id=":A1_9_0" index="0" speed="6.51" length="9.03" shape="52.80,138.40 55.25,138.05 57.00,137.00 58.05,135.25 58.40,132.80"/>
    </edge>
    <edge id=":A1_10" function="internal">
        <lane id=":A1_10_0" index="0" speed="13.89" length="14.40" shape="52.80,138.40 67.20,138.40"/>
    </edge>
    <edge id=":A1_11" function="internal">
        <lane id=":A1_11_0" index="0" speed="8.00" length="14.19" shape="52.80,138.40 56.65,138.95 59.40,140.60 61.05,143.35 61.60,147.20"/>
    </edge>
    <edge id=":A2_0" function="internal">
        <lane id=":A2_0_0" index="0" speed="6.51" length="9.03" shape="58.40,227.20 58.05,224.75 57.00,223.00 55.25,221.95 52.80,221.60"/>
    </edge>
    <edge id=":A2_1" function="internal">
        <lane id=":A2_1_0" index="0" speed="13.89" length="14.40" shape="58.40,227.20 58.40,212.80"/>
    </edge>
    <edge id=":A2_2" function="internal">
        <lane id=":A2_2_0" index="0" speed="8.00" length="4.07" shape="58.40,227.20 58.95,223.35 59.04,223.20"/>
    </edge>
    <edge id=":A2_12" function="internal">
        <lane id=":A2_12_0" index="0" speed="8.00" length="10.13" shape="59.04,223.20 60.60,220.60 63.35,218.95 67.20,218.40"/>
    </edge>
    <edge id=":A2_3" function="internal">
        <lane id=":A2_3_0" index="0" speed="6.51" length="9.03" shape="67.20,221.60 64.75,221.95 63.00,223.00 61.95,224.75 61.60,227.20"/>
    </edge>
    <edge id=":A2_4" function="internal">
        <lane id=":A2_4_0" index="0" speed="13.89" length="14.40" shape="67.20,221.60 52.80,221.60"/>
    </edge>
    <edge id=":A2_5" function="internal">
        <lane id=":A2_5_0" index="0" speed="8.00" length="14.19" shape="67.20,221.60 63.35,221.05 60.60,219.40 58.95,216.65 58.40,212.80"/>
    </edge>
    <edge id=":A2_6" function="internal">
        <lane id=":A2_6_0" index="0" speed="6.51" length="9.03" shape="61.60,212.80 61.95,215.25 63.00,217.00 64.75,218.05 67.20,218.40"/>
    </edge>
    <edge id=":A2_7" function="internal">
        <lane id=":A2_7_0" index="0" speed="13.89" length="14.40" shape="61.60,212.80 61.60,227.20"/>
    </edge>
    <edge id=":A2_8" function="internal">
        <lane id=":A2_8_0" index="0" speed="8.00" length="4.07" shape="61.60,212.80 61.05,216.65 60.96,216.80"/>
    </edge>
    <edge id=":A2_13" function="internal">
        <lane id=":A2_13_0" index="0" speed="8.00" length="10.13" shape="60.96,216.80 59.40,219.40 56.65,221.05 52.80,221.60"/>
    </edge>
    <edge id=":A2_9" function="internal">
        <lane id=":A2_9_0" index="0" speed="6.51" length="9.03" shape="52.80,218.40 55.25,218.05 57.00,217.00 58.05,215.25 58.40,212.80"/>
    </edge>
    <edge id=":A2_10" function="internal">
        <lane id=":A2_10_0" index="0" speed="13.89" length="14.40" shape="52.80,218.40 67.20,218.40"/>
    </edge>
    <edge id=":A2_11" function="internal">
        <lane id=":A2_11_0" index="0" speed="8.00" length="14.19" shape="52.80,218.40 56.65,218.95 59.40,220.60 61.05,223.35 61.60,227.20"/>
    </edge>
    <edge id=":A3_0" function="internal">
        <lane id=":A3_0_0" index="0" speed="6.51" length="9.03" shape="58.40,307.20 58.05,304.75 57.00,303.00 55.25,301.95 52.80,301.60"/>
    </edge>
    <edge id=":A3_1" function="internal">
        <lane id=":A3_1_0" index="0" speed="13.89" length="14.40" shape="58.40,307.20 58.40,292.80"/>
    </edge>
    <edge id=":A3_2" function="internal">
        <lane id=":A3_2_0" index="0" speed="8.00" length="4.07" shape="58.40,307.20 58.95,303.35 59.04,303.20"/>
    </edge>
    <edge id=":A3_12" function="internal">
        <lane id=":A3_12_0" index="0" speed="8.00" length="10.13" shape="59.04,303.20 60.60,300.60 63.35,298.95 67.20,298.40"/>
    </edge>
    <edge id=":A3_3" function="internal">
        <lane id=":A3_3_0" index="0" speed="6.51" length="9.03" shape="67.20,301.60 64.75,301.95 63.00,303.00 61.95,304.75 61.60,307.20"/>
    </edge>
    <edge id=":A3_4" function="internal">
        <lane id=":A3_4_0" index="0" speed="13.89" length="14.40" shape="67.20,301.60 52.80,301.60"/>
    </edge>
    <edge id=":A3_5" function="internal">
        <lane id=":A3_5_0" index="0" speed="8.00" length="14.19" shape="67.20,301.60 63.35,301.05 60.60,299.40 58.95,296.65 58.40,292.80"/>
    </edge>
    <edge id=":A3_6" function="internal">
        <lane id=":A3_6_0" index="0" speed="6.51" length="9.03" shape="61.60,292.80 61.95,295.25 63.00,297.00 64.75,298.05 67.20,298.40"/>
    </edge>
    <edge id=":A3_7" function="internal">
        <lane id=":A3_7_0" index="0" speed="13.89" length="14.40" shape="61.60,292.80 61.60,307.20"/>
    </edge>
    <edge id=":A3_8" function="internal">
        <lane id=":A3_8_0" index="0" speed="8.00" length="4.07" shape="61.60,292.80 61.05,296.65 60.96,296.80"/>
    </edge>
    <edge id=":A3_13" function="internal">
        <lane id=":A3_13_0" index="0" speed="8.00" length="10.13" shape="60.96,296.80 59.40,299.40 56.65,301.05 52.80,301.60"/>
    </edge>
    <edge id=":A3_9" function="internal">
        <lane id=":A3_9_0" index="0" speed="6.51" length="9.03" shape="52.80,298.40 55.25,298.05 57.00,297.00 58.05,295.25 58.40,292.80"/>
    </edge>
    <edge id=":A3_10" function="internal">
        <lane id=":A3_10_0" index="0" speed="13.89" length="14.40" shape="52.80,298.40 67.20,298.40"/>
    </edge>
    <edge id=":A3_11" function="internal">
        <lane id=":A3_11_0" index="0" speed="8.00" length="14.19" shape="52.80,298.40 56.65,298.95 59.40,300.60 61.05,303.35 61.60,307.20"/>
    </edge>
    <edge id=":A4_0" function="internal">
        <lane id=":A4_0_0" index="0" speed="6.51" length="9.03" shape="58.40,387.20 58.05,384.75 57.00,383.00 55.25,381.95 52.80,381.60"/>
    </edge>
    <edge id=":A4_1" function="internal">
        <lane id=":A4_1_0" index="0" speed="13.89" length="14.40" shape="58.40,387.20 58.40,372.80"/>
    </edge>
    <edge id=":A4_2" function="internal">
        <lane id=":A4_2_0" index="0" speed="8.00" length="4.07" shape="58.40,387.20 58.95,383.35 59.04,383.20"/>
    </edge>
    <edge id=":A4_12" function="internal">
        <lane id=":A4_12_0" index="0" speed="8.00" length="10.13" shape="59.04,383.20 60.60,380.60 63.35,378.95 67.20,378.40"/>
    </edge>
    <edge id=":A4_3" function="internal">
        <lane id=":A4_3_0" index="0" speed="6.51" length="9.03" shape="67.20,381.60 64.75,381.95 63.00,383.00 61.95,384.75 61.60,387.20"/>
    </edge>
    <edge id=":A4_4" function="internal">
        <lane id=":A4_4_0" index="0" speed="13.89" length="14.40" shape="67.20,381.60 52.80,381.60"/>
    </edge>
    <edge id=":A4_5" function="internal">
        <lane id=":A4_5_0" index="0" speed="8.00" length="14.19" shape="67.20,381.60 63.35,381.05 60.60,379.40 58.95,376.65 58.40,372.80"/>
    </edge>
    <edge id=":A4_6" function="internal">
        <lane id=":A4_6_0" index="0" speed="6.51" length="9.03" shape="61.60,372.80 61.95,375.25 63.00,377.00 64.75,378.05 67.20,378.40"/>
    </edge>
    <edge id=":A4_7" function="internal">
        <lane id=":A4_7_0" index="0" speed="13.89" length="14.40" shape="61.60,372.80 61.60,387.20"/>
    </edge>
    <edge id=":A4_8" function="internal">
        <lane id=":A4_8_0" index="0" speed="8.00" length="4.07" shape="61.60,372.80 61.05,376.65 60.96,376.80"/>
    </edge>
    <edge id=":A4_13" function="internal">
        <lane id=":A4_13_0" index="0" speed="8.00" length="10.13" shape="60.96,376.80 59.40,379.40 56.65,381.05 52.80,381.60"/>
    </edge>
    <edge id=":A4_9" function="internal">
        <lane id=":A4_9_0" index="0" speed="6.51" length="9.03" shape="52.80,378.40 55.25,378.05 57.00,377.00 58.05,375.25 58.40,372.80"/>
    </edge>
    <edge id=":A4_10" function="internal">
        <lane id=":A4_10_0" index="0" speed="13.89" length="14.40" shape="52.80,378.40 67.20,378.40"/>
    </edge>
    <edge id=":A4_11" function="internal">
        <lane id=":A4_11_0" index="0" speed="8.00" length="14.19" shape="52.80,378.40 56.65,378.95 59.40,380.60 61.05,383.35 61.60,387.20"/>
    </edge>
    <edge id=":B0_0" function="internal">
        <lane id=":B0_0_0" index="0" speed="6.51" length="9.03" shape="138.40,67.20 138.05,64.75 137.00,63.00 135.25,61.95 132.80,61.60"/>
    </edge>
    <edge id=":B0_1" function="internal">
        <lane id=":B0_1_0" index="0" speed="13.89" length="14.40" shape="138.40,67.20 138.40,52.80"/>
    </edge>
    <edge id=":B0_2" function="internal">
        <lane id=":B0_2_0" index="0" speed="8.00" length="4.07" shape="138.40,67.20 138.95,63.35 139.04,63.20"/>
    </edge>
    <edge id=":B0_12" function="internal">
        <lane id=":B0_12_0" index="0" speed="8.00" length="10.13" shape="139.04,63.20 140.60,60.60 143.35,58.95 147.20,58.40"/>
    </edge>
    <edge id=":B0_3" function="internal">
        <lane id=":B0_3_0" index="0" speed="6.51" length="9.03" shape="147.20,61.60 144.75,61.95 143.00,63.00 141.95,64.75 141.60,67.20"/>
    </edge>
    <edge id=":B0_4" function="internal">
        <lane id=":B0_4_0" index="0" speed="13.89" length="14.40" shape="147.20,61.60 132.80,61.60"/>
    </edge>
    <edge id=":B0_5" function="internal">
        <lane id=":B0_5_0" index="0" speed="8.00" length="14.19" shape="147.20,61.60 143.35,61.05 140.60,59.40 138.95,56.65 138.40,52.80"/>
    </edge>
    <edge id=":B0_6" function="internal">
        <lane id=":B0_6_0" index="0" speed="6.51" length="9.03" shape="141.60,52.80 141.95,55.25 143.00,57.00 144.75,58.05 147.20,58.40"/>
    </edge>
    <edge id=":B0_7" function="internal">
        <lane id=":B0_7_0" index="0" speed="13.89" length="14.40" shape="141.60,52.80 141.60,67.20"/>
    </edge>
    <edge id=":B0_8" function="internal">
        <lane id=":B0_8_0" index="0" speed="8.00" length="4.07" shape="141.60,52.80 141.05,56.65 140.96,56.80"/>
    </edge>
    <edge id=":B0_13" function="internal">
        <lane id=":B0_13_0" index="0" speed="8.00" length="10.13" shape="140.96,56.80 139.40,59.40 136.65,61.05 132.80,61.60"/>
    </edge>
    <edge id=":B0_9" function="internal">
        <lane id=":B0_9_0" index="0" speed="6.51" length="9.03" shape="132.80,58.40 135.25,58.05 137.00,57.00 138.05,55.25 138.40,52.80"/>
    </edge>
    <edge id=":B0_10" function="internal">
        <lane id=":B0_10_0" index="0" speed="13.89" length="14.40" shape="132.80,58.40 147.20,58.40"/>
    </edge>
    <edge id=":B0_11" function="internal">
        <lane id=":B0_11_0" index="0" speed="8.00" length="14.19" shape="132.80,58.40 136.65,58.95 139.40,60.60 141.05,63.35 141.60,67.20"/>
    </edge>
    <edge id=":B1_0" function="internal">
        <lane id=":B1_0_0" index="0" speed="6.51" length="9.03" shape="138.40,147.20 138.05,144.75 137.00,143.00 135.25,141.95 132.80,141.60"/>
    </edge>
    <edge id=":B1_1" function="internal">
        <lane id=":B1_1_0" index="0" speed="13.89" length="14.40" shape="138.40,147.20 138.40,132.80"/>
    </edge>
    <edge id=":B1_2" function="internal">
        <lane id=":B1_2_0" index="0" speed="8.00" length="4.07" shape="138.40,147.20 138.95,143.35 139.04,143.20"/>
    </edge>
    <edge id=":B1_12" function="internal">
        <lane id=":B1_12_0" index="0" speed="8.00" length="10.13" shape="139.04,143.20 140.60,140.60 143.35,138.95 147.20,138.40"/>
    </edge>
    <edge id=":B1_3" function="internal">
        <lane id=":B1_3_0" index="0" speed="6.51" length="9.03" shape="147.20,141.60 144.75,141.95 143.00,143.00 141.95,144.75 141.60,147.20"/>
    </edge>
    <edge id=":B1_4" function="internal">
        <lane id=":B1_4_0" index="0" speed="13.89" length="14.40" shape="147.20,141.60 132.80,141.60"/>
    </edge>
    <edge id=":B1_5" function="internal">
        <lane id=":B1_5_0" index="0" speed="8.00" length="4.07" shape="147.20,141.60 143.35,141.05 143.20,140.96"/>
    </edge>
    <edge id=":B1_13" function="internal">
        <lane id=":B1_13_0" index="0" speed="8.00" length="10.13" shape="143.20,140.96 140.60,139.40 138.95,136.65 138.40,132.80"/>
    </edge>
    <edge id=":B1_6" function="internal">
        <lane id=":B1_6_0" index="0" speed="6.51" length="9.03" shape="141.60,132.80 141.95,135.25 143.00,137.00 144.75,138.05 147.20,138.40"/>
    </edge>
    <edge id=":B1_7" function="internal">
        <lane id=":B1_7_0" index="0" speed="13.89" length="14.40" shape="141.60,132.80 141.60,147.20"/>
    </edge>
    <edge id=":B1_8" function="internal">
        <lane id=":B1_8_0" index="0" speed="8.00" length="4.07" shape="141.60,132.80 141.05,136.65 140.96,136.80"/>
    </edge>
    <edge id=":B1_14" function="internal">
        <lane id=":B1_14_0" index="0" speed="8.00" length="10.13" shape="140.96,136.80 139.40,139.40 136.65,141.05 132.80,141.60"/>
    </edge>
    <edge id=":B1_9" function="internal">
        <lane id=":B1_9_0" index="0" speed="6.51" length="9.03" shape="132.80,138.40 135.25,138.05 137.00,137.00 138.05,135.25 138.40,132.80"/>
    </edge>
    <edge id=":B1_10" function="internal">
        <lane id=":B1_10_0" index="0" speed="13.89" length="14.40" shape="132.80,138.40 147.20,138.40"/>
    </edge>
    <edge id=":B1_11" function="internal">
        <lane id=":B1_11_0" index="0" speed="8.00" length="4.07" shape="132.80,138.40 136.65,138.95 136.80,139.04"/>
    </edge>
    <edge id=":B1_15" function="internal">
        <lane id=":B1_15_0" index="0" speed="8.00" length="10.13" shape="136.80,139.04 139.40,140.60 141.05,143.35 141.60,147.20"/>
    </edge>
    <edge id=":B2_0" function="internal">
        <lane id=":B2_0_0" index="0" speed="6.51" length="9.03" shape="138.40,227.20 138.05,224.75 137.00,223.00 135.25,221.95 132.80,221.60"/>
    </edge>
    <edge id=":B2_1" function="internal">
        <lane id=":B2_1_0" index="0" speed="13.89" length="14.40" shape="138.40,227.20 138.40,212.80"/>
    </edge>
    <edge id=":B2_2" function="internal">
        <lane id=":B2_2_0" index="0" speed="8.00" length="4.07" shape="138.40,227.20 138.95,223.35 139.04,223.20"/>
    </edge>
    <edge id=":B2_12" function="internal">
        <lane id=":B2_12_0" index="0" speed="8.00" length="10.13" shape="139.04,223.20 140.60,220.60 143.35,218.95 147.20,218.40"/>
    </edge>
    <edge id=":B2_3" function="internal">
        <lane id=":B2_3_0" index="0" speed="6.51" length="9.03" shape="147.20,221.60 144.75,221.95 143.00,223.00 141.95,224.75 141.60,227.20"/>
    </edge>
    <edge id=":B2_4" function="internal">
        <lane id=":B2_4_0" index="0" speed="13.89" length="14.40" shape="147.20,221.60 132.80,221.60"/>
    </edge>
    <edge id=":B2_5" function="internal">
        <lane id=":B2_5_0" index="0" speed="8.00" length="4.07" shape="147.20,221.60 143.35,221.05 143.20,220.96"/>
    </edge>
    <edge id=":B2_13" function="internal">
        <lane id=":B2_13_0" index="0" speed="8.00" length="10.13" shape="143.20,220.96 140.60,219.40 138.95,216.65 138.40,212.80"/>
    </edge>
    <edge id=":B2_6" function="internal">
        <lane id=":B2_6_0" index="0" speed="6.51" length="9.03" shape="141.60,212.80 141.95,215.25 143.00,217.00 144.75,218.05 147.20,218.40"/>
    </edge>
    <edge id=":B2_7" function="internal">
        <lane id=":B2_7_0" index="0" speed="13.89" length="14.40" shape="141.60,212.80 141.60,227.20"/>
    </edge>
    <edge id=":B2_8" function="internal">
        <lane id=":B2_8_0" index="0" speed="8.00" length="4.07" shape="141.60,212.80 141.05,216.65 140.96,216.80"/>
    </edge>
    <edge id=":B2_14" function="internal">
        <lane id=":B2_14_0" index="0" speed="8.00" length="10.13" shape="140.96,216.80 139.40,219.40 136.65,221.05 132.80,221.60"/>
    </edge>
    <edge id=":B2_9" function="internal">
        <lane id=":B2_9_0" index="0" speed="6.51" length="9.03" shape="132.80,218.40 135.25,218.05 137.00,217.00 138.05,215.25 138.40,212.80"/>
    </edge>
    <edge id=":B2_10" function="internal">
        <lane id=":B2_10_0" index="0" speed="13.89" length="14.40" shape="132.80,218.40 147.20,218.40"/>
    </edge>
    <edge id=":B2_11" function="internal">
        <lane id=":B2_11_0" index="0" speed="8.00" length="4.07" shape="132.80,218.40 136.65,218.95 136.80,219.04"/>
    </edge>
    <edge id=":B2_15" function="internal">
        <lane id=":B2_15_0" index="0" speed="8.00" length="10.13" shape="136.80,219.04 139.40,220.60 141.05,223.35 141.60,227.20"/>
    </edge>
    <edge id=":B3_0" function="internal">
        <lane id=":B3_0_0" index="0" speed="6.51" length="9.03" shape="138.40,307.20 138.05,304.75 137.00,303.00 135.25,301.95 132.80,301.60"/>
    </edge>
    <edge id=":B3_1" function="internal">
        <lane id=":B3_1_0" index="0" speed="13.89" length="14.40" shape="138.40,307.20 138.40,292.80"/>
    </edge>
    <edge id=":B3_2" function="internal">
        <lane id=":B3_2_0" index="0" speed="8.00" length="4.07" shape="138.40,307.20 138.95,303.35 139.04,303.20"/>
    </edge>
    <edge id=":B3_12" function="internal">
        <lane id=":B3_12_0" index="0" speed="8.00" length="10.13" shape="139.04,303.20 140.60,300.60 143.35,298.95 147.20,298.40"/>
    </edge>
    <edge id=":B3_3" function="internal">
        <lane id=":B3_3_0" index="0" speed="6.51" length="9.03" shape="147.20,301.60 144.75,301.95 143.00,303.00 141.95,304.75 141.60,307.20"/>
    </edge>
    <edge id=":B3_4" function="internal">
        <lane id=":B3_4_0" index="0" speed="13.89" length="14.40" shape="147.20,301.60 132.80,301.60"/>
    </edge>
    <edge id=":B3_5" function="internal">
        <lane id=":B3_5_0" index="0" speed="8.00" length="4.07" shape="147.20,301.60 143.35,301.05 143.20,300.96"/>
    </edge>
    <edge id=":B3_13" function="internal">
        <lane id=":B3_13_0" index="0" speed="8.00" length="10.13" shape="143.20,300.96 140.60,299.40 138.95,296.65 138.40,292.80"/>
    </edge>
    <edge id=":B3_6" function="internal">
        <lane id=":B3_6_0" index="0" speed="6.51" length="9.03" shape="141.60,292.80 141.95,295.25 143.00,297.00 144.75,298.05 147.20,298.40"/>
    </edge>
    <edge id=":B3_7" function="internal">
        <lane id=":B3_7_0" index="0" speed="13.89" length="14.40" shape="141.60,292.80 141.60,307.20"/>
    </edge>
    <edge id=":B3_8" function="internal">
        <lane id=":B3_8_0" index="0" speed="8.00" length="4.07" shape="141.60,292.80 141.05,296.65 140.96,296.80"/>
    </edge>
    <edge id=":B3_14" function="internal">
        <lane id=":B3_14_0" index="0" speed="8.00" length="10.13" shape="140.96,296.80 139.40,299.40 136.65,301.05 132.80,301.60"/>
    </edge>
    <edge id=":B3_9" function="internal">
        <lane id=":B3_9_0" index="0" speed="6.51" length="9.03" shape="132.80,298.40 135.25,298.05 137.00,297.00 138.05,295.25 138.40,292.80"/>
    </edge>
    <edge id=":B3_10" function="internal">
        <lane id=":B3_10_0" index="0" speed="13.89" length="14.40" shape="132.80,298.40 147.20,298.40"/>
    </edge>
    <edge id=":B3_11" function="internal">
        <lane id=":B3_11_0" index="0" speed="8.00" length="4.07" shape="132.80,298.40 136.65,298.95 136.80,299.04"/>
    </edge>
    <edge id=":B3_15" function="internal">
        <lane id=":B3_15_0" index="0" speed="8.00" length="10.13" shape="136.80,299.04 139.40,300.60 141.05,303.35 141.60,307.20"/>
    </edge>
    <edge id=":B4_0" function="internal">
        <lane id=":B4_0_0" index="0" speed="6.51" length="9.03" shape="138.40,387.20 138.05,384.75 137.00,383.00 135.25,381.95 132.80,381.60"/>
    </edge>
    <edge id=":B4_1" function="internal">
        <lane id=":B4_1_0" index="0" speed="13.89" length="14.40" shape="138.40,387.20 138.40,372.80"/>
    </edge>
    <edge id=":B4_2" function="internal">
        <lane id=":B4_2_0" index="0" speed="8.00" length="4.07" shape="138.40,387.20 138.95,383.35 139.04,383.20"/>
    </edge>
    <edge id=":B4_12" function="internal">
        <lane id=":B4_12_0" index="0" speed="8.00" length="10.13" shape="139.04,383.20 140.60,380.60 143.35,378.95 147.20,378.40"/>
    </edge>
    <edge id=":B4_3" function="internal">
        <lane id=":B4_3_0" index="0" speed="6.51" length="9.03" shape="147.20,381.60 144.75,381.95 143.00,383.00 141.95,384.75 141.60,387.20"/>
    </edge>
    <edge id=":B4_4" function="internal">
        <lane id=":B4_4_0" index="0" speed="13.89" length="14.40" shape="147.20,381.60 132.80,381.60"/>
    </edge>
    <edge id=":B4_5" function="internal">
        <lane id=":B4_5_0" index="0" speed="8.00" length="14.19" shape="147.20,381.60 143.35,381.05 140.60,379.40 138.95,376.65 138.40,372.80"/>
    </edge>
    <edge id=":B4_6" function="internal">
        <lane id=":B4_6_0" index="0" speed="6.51" length="9.03" shape="141.60,372.80 141.95,375.25 143.00,377.00 144.75,378.05 147.20,378.40"/>
    </edge>
    <edge id=":B4_7" function="internal">
        <lane id=":B4_7_0" index="0" speed="13.89" length="14.40" shape="141.60,372.80 141.60,387.20"/>
    </edge>
    <edge id=":B4_8" function="internal">
        <lane id=":B4_8_0" index="0" speed="8.00" length="4.07" shape="141.60,372.80 141.05,376.65 140.96,376.80"/>
    </edge>
    <edge id=":B4_13" function="internal">
        <lane id=":B4_13_0" index="0" speed="8.00" length="10.13" shape="140.96,376.80 139.40,379.40 136.65,381.05 132.80,381.60"/>
    </edge>
    <edge id=":B4_9" function="internal">
        <lane id=":B4_9_0" index="0" speed="6.51" length="9.03" shape="132.80,378.40 135.25,378.05 137.00,377.00 138.05,375.25 138.40,372.80"/>
    </edge>
    <edge id=":B4_10" function="internal">
        <lane id=":B4_10_0" index="0" speed="13.89" length="14.40" shape="132.80,378.40 147.20,378.40"/>
    </edge>
    <edge id=":B4_11" function="internal">
        <lane id=":B4_11_0" index="0" speed="8.00" length="14.19" shape="132.80,378.40 136.65,378.95 139.40,380.60 141.05,383.35 141.60,387.20"/>
    </edge>
    <edge id=":C0_0" function="internal">
        <lane id=":C0_0_0" index="0" speed="6.51" length="9.03" shape="218.40,67.20 218.05,64.75 217.00,63.00 215.25,61.95 212.80,61.60"/>
    </edge>
    <edge id=":C0_1" function="internal">
        <lane id=":C0_1_0" index="0" speed="13.89" length="14.40" shape="218.40,67.20 218.40,52.80"/>
    </edge>
    <edge id=":C0_2" function="internal">
        <lane id=":C0_2_0" index="0" speed="8.00" length="4.07" shape="218.40,67.20 218.95,63.35 219.04,63.20"/>
    </edge>
    <edge id=":C0_12" function="internal">
        <lane id=":C0_12_0" index="0" speed="8.00" length="10.13" shape="219.04,63.20 220.60,60.60 223.35,58.95 227.20,58.40"/>
    </edge>
    <edge id=":C0_3" function="internal">
        <lane id=":C0_3_0" index="0" speed="6.51" length="9.03" shape="227.20,61.60 224.75,61.95 223.00,63.00 221.95,64.75 221.60,67.20"/>
    </edge>
    <edge id=":C0_4" function="internal">
        <lane id=":C0_4_0" index="0" speed="13.89" length="14.40" shape="227.20,61.60 212.80,61.60"/>
    </edge>
    <edge id=":C0_5" function="internal">
        <lane id=":C0_5_0" index="0" speed="8.00" length="14.19" shape="227.20,61.60 223.35,61.05 220.60,59.40 218.95,56.65 218.40,52.80"/>
    </edge>
    <edge id=":C0_6" function="internal">
        <lane id=":C0_6_0" index="0" speed="6.51" length="9.03" shape="221.60,52.80 221.95,55.25 223.00,57.00 224.75,58.05 227.20,58.40"/>
    </edge>
    <edge id=":C0_7" function="internal">
        <lane id=":C0_7_0" index="0" speed="13.89" length="14.40" shape="221.60,52.80 221.60,67.20"/>
    </edge>
    <edge id=":C0_8" function="internal">
        <lane id=":C0_8_0" index="0" speed="8.00" length="4.07" shape="221.60,52.80 221.05,56.65 220.96,56.80"/>
    </edge>
    <edge id=":C0_13" function="internal">
        <lane id=":C0_13_0" index="0" speed="8.00" length="10.13" shape="220.96,56.80 219.40,59.40 216.65,61.05 212.80,61.60"/>
    </edge>
    <edge id=":C0_9" function="internal">
        <lane id=":C0_9_0" index="0" speed="6.51" length="9.03" shape="212.80,58.40 215.25,58.05 217.00,57.00 218.05,55.25 218.40,52.80"/>
    </edge>
    <edge id=":C0_10" function="internal">
        <lane id=":C0_10_0" index="0" speed="13.89" length="14.40" shape="212.80,58.40 227.20,58.40"/>
    </edge>
    <edge id=":C0_11" function="internal">
        <lane id=":C0_11_0" index="0" speed="8.00" length="14.19" shape="212.80,58.40 216.65,58.95 219.40,60.60 221.05,63.35 221.60,67.20"/>
    </edge>
    <edge id=":C1_0" function="internal">
        <lane id=":C1_0_0" index="0" speed="6.51" length="9.03" shape="218.40,147.20 218.05,144.75 217.00,143.00 215.25,141.95 212.80,141.60"/>
    </edge>
    <edge id=":C1_1" function="internal">
        <lane id=":C1_1_0" index="0" speed="13.89" length="14.40" shape="218.40,147.20 218.40,132.80"/>
    </edge>
    <edge id=":C1_2" function="internal">