<edges>
    <edge id="NtoC" from="N" to="C" numLanes="1" speed="13.89"/>
    <edge id="CtoN" from="C" to="N" numLanes="1" speed="13.89"/>
    <edge id="StoC" from="S" to="C" numLanes="1" speed="13.89"/>
    <edge id="CtoS" from="C" to="S" numLanes="1" speed="13.89"/>
    <edge id="EtoC" from="E" to="C" numLanes="1" speed="13.89"/>
    <edge id="CtoE" from="C" to="E" numLanes="1" speed="13.89"/>
    <edge id="WtoC" from="W" to="C" numLanes="1" speed="13.89"/>
    <edge id="CtoW" from="C" to="W" numLanes="1" speed="13.89"/>
</edges>
