<?xml version="1.0" encoding="UTF-8"?>

<!-- generated on 2026-07-19 08:25:54 by Eclipse SUMO netconvert Version 1.20.0
<configuration xmlns:xsi="http://www.w3.org/2001/XMLSchema-instance" xsi:noNamespaceSchemaLocation="http://sumo.dlr.de/xsd/netconvertConfiguration.xsd">

    <input>
        <node-files value="nodes.nod.xml"/>
        <edge-files value="edges.edg.xml"/>
    </input>

    <output>
        <output-file value="net.net.xml"/>
    </output>

    <tls_building>
        <tls.guess value="true"/>
    </tls_building>

    <junctions>
        <no-turnarounds value="true"/>
    </junctions>

</configuration>
-->

<net version="1.20" junctionCornerDetail="5" limitTurnSpeed="5.50" xmlns:xsi="http://www.w3.org/2001/XMLSchema-instance" xsi:noNamespaceSchemaLocation="http://sumo.dlr.de/xsd/net_file.xsd">

    <location netOffset="120.00,120.00" convBoundary="0.00,0.00,240.00,240.00" origBoundary="-120.00,-120.00,120.00,120.00" projParameter="!"/>

    <edge id=":C_0" function="internal">
        <lane id=":C_0_0" index="0" speed="6.51" length="9.03" shape="118.40,127.20 118.05,124.75 117.00,123.00 115.25,121.95 112.80,121.60"/>
    </edge>
    <edge id=":C_1" function="internal">
        <lane id=":C_1_0" index="0" speed="13.89" length="14.40" shape="118.40,127.20 118.40,112.80"/>
    </edge>
    <edge id=":C_2" function="internal">
        <lane id=":C_2_0" index="0" speed="8.00" length="4.07" shape="118.40,127.20 118.95,123.35 119.04,123.20"/>
    </edge>
    <edge id=":C_12" function="internal">
        <lane id=":C_12_0" index="0" speed="8.00" length="10.13" shape="119.04,123.20 120.60,120.60 123.35,118.95 127.20,118.40"/>
    </edge>
    <edge id=":C_3" function="internal">
        <lane id=":C_3_0" index="0" speed="6.51" length="9.03" shape="127.20,121.60 124.75,121.95 123.00,123.00 121.95,124.75 121.60,127.20"/>
    </edge>
    <edge id=":C_4" function="internal">
        <lane id=":C_4_0" index="0" speed="13.89" length="14.40" shape="127.20,121.60 112.80,121.60"/>
    </edge>
    <edge id=":C_5" function="internal">
        <lane id=":C_5_0" index="0" speed="8.00" length="4.07" shape="127.20,121.60 123.35,121.05 123.20,120.96"/>
    </edge>
    <edge id=":C_13" function="internal">
        <lane id=":C_13_0" index="0" speed="8.00" length="10.13" shape="123.20,120.96 120.60,119.40 118.95,116.65 118.40,112.80"/>
    </edge>
    <edge id=":C_6" function="internal">
        <lane id=":C_6_0" index="0" speed="6.51" length="9.03" shape="121.60,112.80 121.95,115.25 123.00,117.00 124.75,118.05 127.20,118.40"/>
    </edge>
    <edge id=":C_7" function="internal">
        <lane id=":C_7_0" index="0" speed="13.89" length="14.40" shape="121.60,112.80 121.60,127.20"/>
    </edge>
    <edge id=":C_8" function="internal">
        <lane id=":C_8_0" index="0" speed="8.00" length="4.07" shape="121.60,112.80 121.05,116.65 120.96,116.80"/>
    </edge>
    <edge id=":C_14" function="internal">
        <lane id=":C_14_0" index="0" speed="8.00" length="10.13" shape="120.96,116.80 119.40,119.40 116.65,121.05 112.80,121.60"/>
    </edge>
    <edge id=":C_9" function="internal">
        <lane id=":C_9_0" index="0" speed="6.51" length="9.03" shape="112.80,118.40 115.25,118.05 117.00,117.00 118.05,115.25 118.40,112.80"/>
    </edge>
    <edge id=":C_10" function="internal">
        <lane id=":C_10_0" index="0" speed="13.89" length="14.40" shape="112.80,118.40 127.20,118.40"/>
    </edge>
    <edge id=":C_11" function="internal">
        <lane id=":C_11_0" index="0" speed="8.00" length="4.07" shape="112.80,118.40 116.65,118.95 116.80,119.04"/>
    </edge>
    <edge id=":C_15" function="internal">
        <lane id=":C_15_0" index="0" speed="8.00" length="10.13" shape="116.80,119.04 119.40,120.60 121.05,123.35 121.60,127.20"/>
    </edge>

    <edge id="CtoE" from="C" to="E" priority="-1">
        <lane id="CtoE_0" index="0" speed="13.89" length="112.80" shape="127.20,118.40 240.00,118.40"/>
    </edge>
    <edge id="CtoN" from="C" to="N" priority="-1">
        <lane id="CtoN_0" index="0" speed="13.89" length="112.80" shape="121.60,127.20 121.60,240.00"/>
    </edge>
    <edge id="CtoS" from="C" to="S" priority="-1">
        <lane id="CtoS_0" index="0" speed="13.89" length="112.80" shape="118.40,112.80 118.40,0.00"/>
    </edge>
    <edge id="CtoW" from="C" to="W" priority="-1">
        <lane id="CtoW_0" index="0" speed="13.89" length="112.80" shape="112.80,121.60 0.00,121.60"/>
    </edge>
    <edge id="EtoC" from="E" to="C" priority="-1">
        <lane id="EtoC_0" index="0" speed="13.89" length="112.80" shape="240.00,121.60 127.20,121.60"/>
    </edge>
    <edge id="NtoC" from="N" to="C" priority="-1">
        <lane id="NtoC_0" index="0" speed="13.89" length="112.80" shape="118.40,240.00 118.40,127.20"/>
    </edge>
    <edge id="StoC" from="S" to="C" priority="-1">
        <lane id="StoC_0" index="0" speed="13.89" length="112.80" shape="121.60,0.00 121.60,112.80"/>
    </edge>
    <edge id="WtoC" from="W" to="C" priority="-1">
        <lane id="WtoC_0" index="0" speed="13.89" length="112.80" shape="0.00,118.40 112.80,118.40"/>
    </edge>

    <tlLogic id="C" type="static" programID="0" offset="0">
        <phase duration="1000" state="rrrGGgrrrGGg"/>
    </tlLogic>

    <junction id="C" type="traffic_light" x="120.00" y="120.00" incLanes="NtoC_0 EtoC_0 StoC_0 WtoC_0" intLanes=":C_0_0 :C_1_0 :C_12_0 :C_3_0 :C_4_0 :C_13_0 :C_6_0 :C_7_0 :C_14_0 :C_9_0 :C_10_0 :C_15_0" shape="116.80,127.20 123.20,127.20 123.64,124.98 124.20,124.20 124.98,123.64 125.98,123.31 127.20,123.20 127.20,116.80 124.98,116.36 124.20,115.80 123.64,115.02 123.31,114.02 123.20,112.80 116.80,112.80 116.36,115.02 115.80,115.80 115.02,116.36 114.02,116.69 112.80,116.80 112.80,123.20 115.02,123.64 115.80,124.20 116.36,124.98 116.69,125.98">
        <request index="0"  response="000000000000" foes="000100010000" cont="0"/>
        <request index="1"  response="100000100000" foes="111100110000" cont="0"/>
        <request index="2"  response="100111100000" foes="110111110000" cont="1"/>
        <request index="3"  response="000010000000" foes="100010000000" cont="0"/>
        <request index="4"  response="000110000111" foes="100110000111" cont="0"/>
        <request index="5"  response="111110000110" foes="111110000110" cont="1"/>
        <request index="6"  response="000000000000" foes="010000000100" cont="0"/>
        <request index="7"  response="100000100000" foes="110000111100" cont="0"/>
        <request index="8"  response="100000100011" foes="110000110111" cont="1"/>
        <request index="9"  response="000000000010" foes="000000100010" cont="0"/>
        <request index="10" response="000111000110" foes="000111100110" cont="0"/>
        <request index="11" response="000110011110" foes="000110111110" cont="1"/>
    </junction>
    <junction id="E" type="dead_end" x="240.00" y="120.00" incLanes="CtoE_0" intLanes="" shape="240.00,120.00 240.00,116.80 240.00,120.00"/>
    <junction id="N" type="dead_end" x="120.00" y="240.00" incLanes="CtoN_0" intLanes="" shape="120.00,240.00 123.20,240.00 120.00,240.00"/>
    <junction id="S" type="dead_end" x="120.00" y="0.00" incLanes="CtoS_0" intLanes="" shape="120.00,0.00 116.80,0.00 120.00,0.00"/>
    <junction id="W" type="dead_end" x="0.00" y="120.00" incLanes="CtoW_0" intLanes="" shape="0.00,120.00 0.00,123.20 0.00,120.00"/>

    <junction id=":C_12_0" type="internal" x="119.04" y="123.20" incLanes=":C_2_0 StoC_0" intLanes=":C_4_0 :C_5_0 :C_6_0 :C_7_0 :C_10_0 :C_11_0"/>
    <junction id=":C_13_0" type="internal" x="123.20" y="120.96" incLanes=":C_5_0 WtoC_0" intLanes=":C_1_0 :C_2_0 :C_7_0 :C_8_0 :C_9_0 :C_10_0"/>
    <junction id=":C_14_0" type="internal" x="120.96" y="116.80" incLanes=":C_8_0 NtoC_0" intLanes=":C_0_0 :C_1_0 :C_4_0 :C_5_0 :C_10_0 :C_11_0"/>
    <junction id=":C_15_0" type="internal" x="116.80" y="119.04" incLanes=":C_11_0 EtoC_0" intLanes=":C_1_0 :C_2_0 :C_3_0 :C_4_0 :C_7_0 :C_8_0"/>

    <connection from="EtoC" to="CtoN" fromLane="0" toLane="0" via=":C_3_0" tl="C" linkIndex="3" dir="r" state="o"/>
    <connection from="EtoC" to="CtoW" fromLane="0" toLane="0" via=":C_4_0" tl="C" linkIndex="4" dir="s" state="o"/>
    <connection from="EtoC" to="CtoS" fromLane="0" toLane="0" via=":C_5_0" tl="C" linkIndex="5" dir="l" state="o"/>
    <connection from="NtoC" to="CtoW" fromLane="0" toLane="0" via=":C_0_0" tl="C" linkIndex="0" dir="r" state="O"/>
    <connection from="NtoC" to="CtoS" fromLane="0" toLane="0" via=":C_1_0" tl="C" linkIndex="1" dir="s" state="O"/>
    <connection from="NtoC" to="CtoE" fromLane="0" toLane="0" via=":C_2_0" tl="C" linkIndex="2" dir="l" state="o"/>
    <connection from="StoC" to="CtoE" fromLane="0" toLane="0" via=":C_6_0" tl="C" linkIndex="6" dir="r" state="O"/>
    <connection from="StoC" to="CtoN" fromLane="0" toLane="0" via=":C_7_0" tl="C" linkIndex="7" dir="s" state="O"/>
    <connection from="StoC" to="CtoW" fromLane="0" toLane="0" via=":C_8_0" tl="C" linkIndex="8" dir="l" state="o"/>
    <connection from="WtoC" to="CtoS" fromLane="0" toLane="0" via=":C_9_0" tl="C" linkIndex="9" dir="r" state="o"/>
    <connection from="WtoC" to="CtoE" fromLane="0" toLane="0" via=":C_10_0" tl="C" linkIndex="10" dir="s" state="o"/>
    <connection from="WtoC" to="CtoN" fromLane="0" toLane="0" via=":C_11_0" tl="C" linkIndex="11" dir="l" state="o"/>

    <connection from=":C_0" to="CtoW" fromLane="0" toLane="0" dir="r" state="M"/>
    <connection from=":C_1" to="CtoS" fromLane="0" toLane="0" dir="s" state="M"/>
    <connection from=":C_2" to="CtoE" fromLane="0" toLane="0" via=":C_12_0" dir="l" state="m"/>
    <connection from=":C_12" to="CtoE" fromLane="0" toLane="0" dir="l" state="M"/>
    <connection from=":C_3" to="CtoN" fromLane="0" toLane="0" dir="r" state="M"/>
    <connection from=":C_4" to="CtoW" fromLane="0" toLane="0" dir="s" state="M"/>
    <connection from=":C_5" to="CtoS" fromLane="0" toLane="0" via=":C_13_0" dir="l" state="m"/>
    <connection from=":C_13" to="CtoS" fromLane="0" toLane="0" dir="l" state="M"/>
    <connection from=":C_6" to="CtoE" fromLane="0" toLane="0" dir="r" state="M"/>
    <connection from=":C_7" to="CtoN" fromLane="0" toLane="0" dir="s" state="M"/>
    <connection from=":C_8" to="CtoW" fromLane="0" toLane="0" via=":C_14_0" dir="l" state="m"/>
    <connection from=":C_14" to="CtoW" fromLane="0" toLane="0" dir="l" state="M"/>
    <connection from=":C_9" to="CtoS" fromLane="0" toLane="0" dir="r" state="M"/>
    <connection from=":C_10" to="CtoE" fromLane="0" toLane="0" dir="s" state="M"/>
    <connection from=":C_11" to="CtoN" fromLane="0" toLane="0" via=":C_15_0" dir="l" state="m"/>
    <connection from=":C_15" to="CtoN" fromLane="0" toLane="0" dir="l" state="M"/>

</net>
