<nodes>
    <node id="C" x="0"   y="0"    type="traffic_light"/>
    <node id="N" x="0"   y="120"  type="priority"/>
    <node id="S" x="0"   y="-120" type="priority"/>
    <node id="E" x="120" y="0"    type="priority"/>
    <node id="W" x="-120" y="0"   type="priority"/>
</nodes>
