<routes>
  <vType id="car" accel="2.6" decel="4.5" sigma="0" length="5" minGap="2.5" maxSpeed="13.89" tau="1.0"/>
  <route id="we" edges="AB BC CD DE"/>
  <route id="ew" edges="ED DC CB BA"/>
  <route id="w_sc" edges="AB BC CSc"/>
  <flow id="f_we"  type="car" route="we"  begin="0" end="1000" vehsPerHour="400" departLane="best" departSpeed="max"/>
  <flow id="f_ew"  type="car" route="ew"  begin="0" end="1000" vehsPerHour="400" departLane="best" departSpeed="max"/>
  <flow id="f_wsc" type="car" route="w_sc" begin="0" end="1000" vehsPerHour="150" departLane="best" departSpeed="max"/>
</routes>
