<?xml version="1.0" encoding="UTF-8"?>

<!-- generated on 2026-07-08 09:47:45 by Eclipse SUMO netconvert Version 1.20.0
<configuration xmlns:xsi="http://www.w3.org/2001/XMLSchema-instance" xsi:noNamespaceSchemaLocation="http://sumo.dlr.de/xsd/netconvertConfiguration.xsd">

    <input>
        <node-files value="nodes.nod.xml"/>
        <edge-files value="edges.edg.xml"/>
        <connection-files value="connections.con.xml"/>
    </input>

    <output>
        <output-file value="net.net.xml"/>
    </output>

    <junctions>
        <no-turnarounds value="true"/>
        <junctions.corner-detail value="0"/>
    </junctions>

</configuration>
-->

<net version="1.20" limitTurnSpeed="5.50" xmlns:xsi="http://www.w3.org/2001/XMLSchema-instance" xsi:noNamespaceSchemaLocation="http://sumo.dlr.de/xsd/net_file.xsd">

    <location netOffset="0.00,30.00" convBoundary="0.00,0.00,600.00,60.00" origBoundary="0.00,-30.00,600.00,30.00" projParameter="!"/>

    <edge id=":J_0" function="internal">
        <lane id=":J_0_0" index="0" speed="13.89" length="19.16" shape="282.59,26.65 286.96,27.13 292.11,27.71 297.27,28.20 301.66,28.40"/>
    </edge>
    <edge id=":J_1" function="internal">
        <lane id=":J_1_0" index="0" speed="13.89" length="19.16" shape="282.59,30.13 286.96,29.65 292.11,29.08 297.27,28.60 301.66,28.40"/>
    </edge>

    <edge id="AJ" from="A" to="J" priority="10">
        <lane id="AJ_0" index="0" speed="13.89" length="284.16" shape="-0.16,58.41 282.59,30.13"/>
    </edge>
    <edge id="BJ" from="B" to="J" priority="1">
        <lane id="BJ_0" index="0" speed="13.89" length="283.84" shape="0.16,-1.59 282.59,26.65"/>
    </edge>
    <edge id="JC" from="J" to="C" priority="10">
        <lane id="JC_0" index="0" speed="13.89" length="298.34" shape="301.66,28.40 600.00,28.40"/>
    </edge>

    <junction id="A" type="dead_end" x="0.00" y="60.00" incLanes="" intLanes="" shape="0.00,60.00 -0.32,56.82"/>
    <junction id="B" type="dead_end" x="0.00" y="0.00" incLanes="" intLanes="" shape="0.00,0.00 0.32,-3.18"/>
    <junction id="C" type="dead_end" x="600.00" y="30.00" incLanes="JC_0" intLanes="" shape="600.00,26.80 600.00,30.00"/>
    <junction id="J" type="priority" x="300.00" y="30.00" incLanes="BJ_0 AJ_0" intLanes=":J_0_0 :J_1_0" shape="301.66,30.00 301.66,26.80 282.75,25.06 282.43,28.24 282.43,28.54 282.75,31.73">
        <request index="0" response="10" foes="10" cont="0"/>
        <request index="1" response="00" foes="01" cont="0"/>
    </junction>

    <connection from="AJ" to="JC" fromLane="0" toLane="0" via=":J_1_0" dir="s" state="M"/>
    <connection from="BJ" to="JC" fromLane="0" toLane="0" via=":J_0_0" dir="s" state="m"/>

    <connection from=":J_0" to="JC" fromLane="0" toLane="0" dir="s" state="M"/>
    <connection from=":J_1" to="JC" fromLane="0" toLane="0" dir="s" state="M"/>

</net>
