<?xml version="1.0" encoding="UTF-8"?>
<routes xmlns:xsi="http://www.w3.org/2001/XMLSchema-instance" xsi:noNamespaceSchemaLocation="http://sumo.dlr.de/xsd/routes_file.xsd">
    <vType id="car"  vClass="passenger" sigma="0"/>
    <vType id="slow" vClass="passenger" sigma="0" maxSpeed="6"/>
    <route id="major" edges="AJ JC"/>
    <route id="minor" edges="BJ JC"/>
    <!-- mA (major, slow) is crossing the merge when vB (minor) arrives, so vB must yield to it and
         then follow it onto the shared lane JC. -->
    <vehicle id="mA" type="slow" route="major" depart="0" departPos="255" departSpeed="6"     departLane="0"/>
    <vehicle id="vB" type="car"  route="minor" depart="2" departPos="220" departSpeed="13.89" departLane="0"/>
</routes>
