<?xml version="1.0" encoding="UTF-8"?>

<!-- generated on 2026-07-10 02:41:24 by Eclipse SUMO netconvert Version 1.20.0
<configuration xmlns:xsi="http://www.w3.org/2001/XMLSchema-instance" xsi:noNamespaceSchemaLocation="http://sumo.dlr.de/xsd/netconvertConfiguration.xsd">

    <input>
        <node-files value="nodes.nod.xml"/>
        <edge-files value="edges.edg.xml"/>
    </input>

    <output>
        <output-file value="net.net.xml"/>
    </output>

    <junctions>
        <no-turnarounds value="true"/>
        <junctions.corner-detail value="0"/>
    </junctions>

</configuration>
-->

<net version="1.20" limitTurnSpeed="5.50" xmlns:xsi="http://www.w3.org/2001/XMLSchema-instance" xsi:noNamespaceSchemaLocation="http://sumo.dlr.de/xsd/net_file.xsd">

    <location netOffset="1500.00,300.00" convBoundary="0.00,0.00,3000.00,600.00" origBoundary="-1500.00,-300.00,1500.00,300.00" projParameter="!"/>

    <edge id=":C_0" function="internal">
        <lane id=":C_0_0" index="0" allow="rail" speed="5.04" length="5.00" shape="1501.60,296.90 1501.79,298.26 1502.37,299.23 1503.34,299.81 1504.70,300.00"/>
    </edge>
    <edge id=":C_1" function="internal">
        <lane id=":C_1_0" index="0" speed="8.00" length="6.20" shape="1501.60,296.90 1501.60,303.10"/>
    </edge>
    <edge id=":C_2" function="internal">
        <lane id=":C_2_0" index="0" allow="rail" speed="27.78" length="6.20" shape="1498.50,300.00 1504.70,300.00"/>
    </edge>
    <edge id=":C_3" function="internal">
        <lane id=":C_3_0" index="0" allow="rail" speed="5.75" length="5.00" shape="1498.50,300.00 1499.86,300.19 1500.82,300.77 1501.41,301.74 1501.60,303.10"/>
    </edge>

    <edge id="CE" from="C" to="E" priority="-1" spreadType="center">
        <lane id="CE_0" index="0" allow="rail" speed="27.78" length="1495.30" shape="1504.70,300.00 3000.00,300.00"/>
    </edge>
    <edge id="CN" from="C" to="N" priority="-1">
        <lane id="CN_0" index="0" speed="8.00" length="296.90" shape="1501.60,303.10 1501.60,600.00"/>
    </edge>
    <edge id="SC" from="S" to="C" priority="-1">
        <lane id="SC_0" index="0" speed="8.00" length="296.90" shape="1501.60,0.00 1501.60,296.90"/>
    </edge>
    <edge id="WC" from="W" to="C" priority="-1" spreadType="center">
        <lane id="WC_0" index="0" allow="rail" speed="27.78" length="1498.50" shape="0.00,300.00 1498.50,300.00"/>
    </edge>

    <junction id="C" type="rail_crossing" x="1500.00" y="300.00" incLanes="SC_0 WC_0" intLanes=":C_0_0 :C_1_0 :C_2_0 :C_3_0" shape="1500.00,303.10 1503.20,303.10 1504.70,301.60 1504.70,298.40 1503.20,296.90 1500.00,296.90 1498.50,298.40 1498.50,301.60">
        <request index="0" response="0100" foes="0100" cont="0"/>
        <request index="1" response="1100" foes="1100" cont="0"/>
        <request index="2" response="0000" foes="0011" cont="0"/>
        <request index="3" response="0000" foes="0010" cont="0"/>
    </junction>
    <junction id="E" type="dead_end" x="3000.00" y="300.00" incLanes="CE_0" intLanes="" shape="3000.00,298.40 3000.00,301.60"/>
    <junction id="N" type="dead_end" x="1500.00" y="600.00" incLanes="CN_0" intLanes="" shape="1503.20,600.00 1500.00,600.00"/>
    <junction id="S" type="dead_end" x="1500.00" y="0.00" incLanes="" intLanes="" shape="1500.00,0.00 1503.20,0.00"/>
    <junction id="W" type="dead_end" x="0.00" y="300.00" incLanes="" intLanes="" shape="0.00,301.60 0.00,298.40"/>

    <connection from="SC" to="CE" fromLane="0" toLane="0" via=":C_0_0" tl="C" linkIndex="0" dir="r" state="o"/>
    <connection from="SC" to="CN" fromLane="0" toLane="0" via=":C_1_0" tl="C" linkIndex="1" dir="s" state="o"/>
    <connection from="WC" to="CE" fromLane="0" toLane="0" via=":C_2_0" tl="C" linkIndex="-1" dir="s" state="M"/>
    <connection from="WC" to="CN" fromLane="0" toLane="0" via=":C_3_0" tl="C" linkIndex="-1" dir="l" state="M"/>

    <connection from=":C_0" to="CE" fromLane="0" toLane="0" dir="r" state="M"/>
    <connection from=":C_1" to="CN" fromLane="0" toLane="0" dir="s" state="M"/>
    <connection from=":C_2" to="CE" fromLane="0" toLane="0" dir="s" state="M"/>
    <connection from=":C_3" to="CN" fromLane="0" toLane="0" dir="l" state="M"/>

</net>
