<nodes>
    <node id="W" x="-1500" y="0"    type="dead_end"/>
    <node id="E" x="1500"  y="0"    type="dead_end"/>
    <node id="C" x="0"     y="0"    type="rail_crossing"/>
    <node id="S" x="0"     y="-300" type="dead_end"/>
    <node id="N" x="0"     y="300"  type="dead_end"/>
</nodes>
