sumo_version=1.20.0
sumo_version_reported=Eclipse SUMO sumo Version 1.20.0
generated_utc=2026-07-10T02:47:18Z
command=sumo -c config.sumocfg --fcd-output golden.fcd.xml --fcd-output.acceleration --precision 6 --save-state.times 1 --save-state.files golden.state.xml --no-step-log true
state_time=1
# input file hashes (sha256):
input=net.net.xml sha256=7f6d13f88efcc1dd72944ee5b07736f2fc27eb0a03ee878f19d681eac7bb8fa0
input=rou.rou.xml sha256=3d0734063404bad9431a314452b432c65b64987bf9d19d654b44966549afa28d
input=config.sumocfg sha256=699db8bb19c2a04771823cdf07425db7a0f6132e15010addab11757894f29d7d
