<?xml version="1.0" encoding="UTF-8"?>
<routes xmlns:xsi="http://www.w3.org/2001/XMLSchema-instance" xsi:noNamespaceSchemaLocation="http://sumo.dlr.de/xsd/routes_file.xsd">
    <!-- OV3 execution fixture (clear): a slow leader, a fast lcOpposite overtaker behind it, and NO
         oncoming traffic. The overtaker spills toward the oncoming lane, passes the leader, and
         returns to its lane. -->
    <vType id="slow" vClass="passenger" sigma="0" maxSpeed="6"/>
    <vType id="fast" vClass="passenger" sigma="0" maxSpeed="13.89" lcOpposite="true"/>
    <route id="ab" edges="AB"/>
    <vehicle id="leader"    type="slow" route="ab" depart="0" departPos="100" departSpeed="0" departLane="0"/>
    <vehicle id="overtaker" type="fast" route="ab" depart="0" departPos="60"  departSpeed="0" departLane="0"/>
</routes>
