<?xml version="1.0" encoding="UTF-8"?>

<!-- generated on 2026-07-10 01:42:02 by Eclipse SUMO netconvert Version 1.20.0
<configuration xmlns:xsi="http://www.w3.org/2001/XMLSchema-instance" xsi:noNamespaceSchemaLocation="http://sumo.dlr.de/xsd/netconvertConfiguration.xsd">

    <input>
        <node-files value="nodes.nod.xml"/>
        <edge-files value="edges.edg.xml"/>
    </input>

    <output>
        <output-file value="net.net.xml"/>
    </output>

    <junctions>
        <no-turnarounds value="true"/>
        <junctions.corner-detail value="0"/>
    </junctions>

</configuration>
-->

<net version="1.20" limitTurnSpeed="5.50" xmlns:xsi="http://www.w3.org/2001/XMLSchema-instance" xsi:noNamespaceSchemaLocation="http://sumo.dlr.de/xsd/net_file.xsd">

    <location netOffset="0.00,600.00" convBoundary="0.00,0.00,400.00,1000.00" origBoundary="0.00,-600.00,400.00,400.00" projParameter="!"/>

    <edge id=":J_0" function="internal">
        <lane id=":J_0_0" index="0" speed="6.51" length="9.03" shape="204.80,792.80 205.15,795.25 206.20,797.00 207.95,798.05 210.40,798.40"/>
    </edge>
    <edge id=":J_1" function="internal">
        <lane id=":J_1_0" index="0" speed="13.89" length="11.20" shape="204.80,792.80 204.80,804.00"/>
        <lane id=":J_1_1" index="1" speed="13.89" length="11.20" shape="201.60,792.80 201.60,804.00"/>
    </edge>
    <edge id=":J_3" function="internal">
        <lane id=":J_3_0" index="0" speed="13.89" length="14.40" shape="196.00,798.40 210.40,798.40"/>
    </edge>
    <edge id=":J_4" function="internal">
        <lane id=":J_4_0" index="0" speed="6.51" length="9.03" shape="196.00,798.40 198.45,798.75 200.20,799.80 201.25,801.55 201.60,804.00"/>
    </edge>

    <edge id="JE" from="J" to="E" priority="10">
        <lane id="JE_0" index="0" speed="13.89" length="196.00" shape="204.80,804.00 204.80,1000.00"/>
        <lane id="JE_1" index="1" speed="13.89" length="196.00" shape="201.60,804.00 201.60,1000.00"/>
    </edge>
    <edge id="JN" from="J" to="N" priority="1">
        <lane id="JN_0" index="0" speed="13.89" length="189.60" shape="210.40,798.40 400.00,798.40"/>
    </edge>
    <edge id="SJ" from="S" to="J" priority="1">
        <lane id="SJ_0" index="0" speed="13.89" length="196.00" shape="0.00,798.40 196.00,798.40"/>
    </edge>
    <edge id="WJ" from="W" to="J" priority="10">
        <lane id="WJ_0" index="0" speed="13.89" length="792.80" shape="204.80,0.00 204.80,792.80"/>
        <lane id="WJ_1" index="1" speed="13.89" length="792.80" shape="201.60,0.00 201.60,792.80"/>
    </edge>

    <junction id="E" type="dead_end" x="200.00" y="1000.00" incLanes="JE_0 JE_1" intLanes="" shape="206.40,1000.00 200.00,1000.00"/>
    <junction id="J" type="priority" x="200.00" y="800.00" incLanes="WJ_0 WJ_1 SJ_0" intLanes=":J_0_0 :J_1_0 :J_1_1 :J_3_0 :J_4_0" shape="200.00,804.00 206.40,804.00 210.40,800.00 210.40,796.80 206.40,792.80 200.00,792.80 196.00,796.80 196.00,800.00">
        <request index="0" response="00000" foes="01000" cont="0"/>
        <request index="1" response="00000" foes="11000" cont="0"/>
        <request index="2" response="00000" foes="11000" cont="0"/>
        <request index="3" response="00111" foes="00111" cont="0"/>
        <request index="4" response="00110" foes="00110" cont="0"/>
    </junction>
    <junction id="N" type="dead_end" x="400.00" y="800.00" incLanes="JN_0" intLanes="" shape="400.00,796.80 400.00,800.00"/>
    <junction id="S" type="dead_end" x="0.00" y="800.00" incLanes="" intLanes="" shape="0.00,800.00 0.00,796.80"/>
    <junction id="W" type="dead_end" x="200.00" y="0.00" incLanes="" intLanes="" shape="200.00,0.00 206.40,0.00"/>

    <connection from="SJ" to="JN" fromLane="0" toLane="0" via=":J_3_0" dir="s" state="m"/>
    <connection from="SJ" to="JE" fromLane="0" toLane="1" via=":J_4_0" dir="l" state="m"/>
    <connection from="WJ" to="JN" fromLane="0" toLane="0" via=":J_0_0" dir="r" state="M"/>
    <connection from="WJ" to="JE" fromLane="0" toLane="0" via=":J_1_0" dir="s" state="M"/>
    <connection from="WJ" to="JE" fromLane="1" toLane="1" via=":J_1_1" dir="s" state="M"/>

    <connection from=":J_0" to="JN" fromLane="0" toLane="0" dir="r" state="M"/>
    <connection from=":J_1" to="JE" fromLane="0" toLane="0" dir="s" state="M"/>
    <connection from=":J_1" to="JE" fromLane="1" toLane="1" dir="s" state="M"/>
    <connection from=":J_3" to="JN" fromLane="0" toLane="0" dir="s" state="M"/>
    <connection from=":J_4" to="JE" fromLane="0" toLane="1" dir="l" state="M"/>

</net>
