<?xml version="1.0" encoding="UTF-8"?>
<configuration>
    <input>
        <net-file value="net.xml"/>
        <route-files value="routes.rou.xml"/>
    </input>
    <processing>
        <ignore-route-errors value="false"/>
    </processing>
</configuration>
