sumo_version=1.20.0
sumo_version_reported=Eclipse SUMO sumo Version 1.20.0
generated_utc=2026-07-18T15:26:30Z
command=sumo -c /home/user/SumoSharp/scenarios/69-parkandstay-lc/config.sumocfg --fcd-output /home/user/SumoSharp/scenarios/69-parkandstay-lc/golden.fcd.xml --fcd-output.acceleration --precision 6 --save-state.times 1 --save-state.files /home/user/SumoSharp/scenarios/69-parkandstay-lc/golden.state.xml --no-step-log true --tripinfo-output /home/user/SumoSharp/scenarios/69-parkandstay-lc/golden.tripinfo.xml
state_time=1
# input file hashes (sha256):
input=net.net.xml sha256=24ad7a0673538920b9ca69a982d6cc1674b8727a841032c31f18a0adb991d424
input=rou.rou.xml sha256=4afc3e9af51737d17eaf1ea12a54452e05bedbe6836cd43685e39baa1dbb6fbe
input=config.sumocfg sha256=e1f791659af084f233c60e18462a7888805a659c23cd28380352a5a7e16e1e04
