<?xml version="1.0" encoding="UTF-8"?>

<!-- generated on 2026-07-13 08:26:54 by Eclipse SUMO netconvert Version 1.18.0
<configuration xmlns:xsi="http://www.w3.org/2001/XMLSchema-instance" xsi:noNamespaceSchemaLocation="http://sumo.dlr.de/xsd/netconvertConfiguration.xsd">

    <input>
        <node-files value="/tmp/claude-0/-home-user-SUMO-NET/cf27b19c-aa17-5fcf-8623-6a70b352f1c1/scratchpad/jg/bend.nod.xml"/>
        <edge-files value="/tmp/claude-0/-home-user-SUMO-NET/cf27b19c-aa17-5fcf-8623-6a70b352f1c1/scratchpad/jg/bend.edg.xml"/>
    </input>

    <output>
        <output-file value="samples/junctions/bend/net.net.xml"/>
    </output>

    <processing>
        <offset.disable-normalization value="true"/>
    </processing>

    <junctions>
        <no-turnarounds value="true"/>
        <junctions.corner-detail value="8"/>
    </junctions>

</configuration>
-->

<net version="1.16" junctionCornerDetail="8" limitTurnSpeed="5.50" xmlns:xsi="http://www.w3.org/2001/XMLSchema-instance" xsi:noNamespaceSchemaLocation="http://sumo.dlr.de/xsd/net_file.xsd">

    <location netOffset="0.00,0.00" convBoundary="-120.00,0.00,0.00,120.00" origBoundary="-120.00,0.00,0.00,120.00" projParameter="!"/>

    <edge id=":C_0" function="internal">
        <lane id=":C_0_0" index="0" speed="3.90" length="2.58" shape="-4.80,6.40 -4.90,5.70 -5.20,5.20 -5.70,4.90 -6.40,4.80"/>
        <lane id=":C_0_1" index="1" speed="6.08" length="7.74" shape="-1.60,6.40 -1.90,4.30 -2.80,2.80 -4.30,1.90 -6.40,1.60"/>
    </edge>
    <edge id=":C_2" function="internal">
        <lane id=":C_2_0" index="0" speed="8.96" length="18.06" shape="-6.40,-4.80 -1.50,-4.10 2.00,-2.00 4.10,1.50 4.80,6.40"/>
        <lane id=":C_2_1" index="1" speed="7.66" length="12.90" shape="-6.40,-1.60 -2.90,-1.10 -0.40,0.40 1.10,2.90 1.60,6.40"/>
    </edge>

    <edge id="CN" from="C" to="N" priority="-1">
        <lane id="CN_0" index="0" speed="13.90" length="113.60" shape="4.80,6.40 4.80,120.00"/>
        <lane id="CN_1" index="1" speed="13.90" length="113.60" shape="1.60,6.40 1.60,120.00"/>
    </edge>
    <edge id="CW" from="C" to="W" priority="-1">
        <lane id="CW_0" index="0" speed="13.90" length="113.60" shape="-6.40,4.80 -120.00,4.80"/>
        <lane id="CW_1" index="1" speed="13.90" length="113.60" shape="-6.40,1.60 -120.00,1.60"/>
    </edge>
    <edge id="NC" from="N" to="C" priority="-1">
        <lane id="NC_0" index="0" speed="13.90" length="113.60" shape="-4.80,120.00 -4.80,6.40"/>
        <lane id="NC_1" index="1" speed="13.90" length="113.60" shape="-1.60,120.00 -1.60,6.40"/>
    </edge>
    <edge id="WC" from="W" to="C" priority="-1">
        <lane id="WC_0" index="0" speed="13.90" length="113.60" shape="-120.00,-4.80 -6.40,-4.80"/>
        <lane id="WC_1" index="1" speed="13.90" length="113.60" shape="-120.00,-1.60 -6.40,-1.60"/>
    </edge>

    <junction id="C" type="priority" x="0.00" y="0.00" incLanes="NC_0 NC_1 WC_0 WC_1" intLanes=":C_0_0 :C_0_1 :C_2_0 :C_2_1" shape="-6.40,6.40 6.40,6.40 6.24,3.71 5.77,1.34 4.98,-0.71 3.87,-2.45 2.45,-3.87 0.71,-4.98 -1.34,-5.77 -3.71,-6.24 -6.40,-6.40">
        <request index="0" response="0000" foes="0000" cont="0"/>
        <request index="1" response="0000" foes="0000" cont="0"/>
        <request index="2" response="0000" foes="0000" cont="0"/>
        <request index="3" response="0000" foes="0000" cont="0"/>
    </junction>
    <junction id="N" type="dead_end" x="0.00" y="120.00" incLanes="CN_0 CN_1" intLanes="" shape="0.00,120.00 6.40,120.00 0.00,120.00"/>
    <junction id="W" type="dead_end" x="-120.00" y="0.00" incLanes="CW_0 CW_1" intLanes="" shape="-120.00,0.00 -120.00,6.40 -120.00,0.00"/>

    <connection from="NC" to="CW" fromLane="0" toLane="0" via=":C_0_0" dir="r" state="M"/>
    <connection from="NC" to="CW" fromLane="1" toLane="1" via=":C_0_1" dir="r" state="M"/>
    <connection from="WC" to="CN" fromLane="0" toLane="0" via=":C_2_0" dir="l" state="M"/>
    <connection from="WC" to="CN" fromLane="1" toLane="1" via=":C_2_1" dir="l" state="M"/>

    <connection from=":C_0" to="CW" fromLane="0" toLane="0" dir="r" state="M"/>
    <connection from=":C_0" to="CW" fromLane="1" toLane="1" dir="r" state="M"/>
    <connection from=":C_2" to="CN" fromLane="0" toLane="0" dir="l" state="M"/>
    <connection from=":C_2" to="CN" fromLane="1" toLane="1" dir="l" state="M"/>

</net>
