<?xml version="1.0" encoding="UTF-8"?>

<!-- generated on 2026-07-09 11:27:31 by Eclipse SUMO netconvert Version 1.20.0
<configuration xmlns:xsi="http://www.w3.org/2001/XMLSchema-instance" xsi:noNamespaceSchemaLocation="http://sumo.dlr.de/xsd/netconvertConfiguration.xsd">

    <input>
        <node-files value="nodes.nod.xml"/>
        <edge-files value="edges.edg.xml"/>
    </input>

    <output>
        <output-file value="net.net.xml"/>
    </output>

    <junctions>
        <no-turnarounds value="true"/>
    </junctions>

</configuration>
-->

<net version="1.20" junctionCornerDetail="5" limitTurnSpeed="5.50" xmlns:xsi="http://www.w3.org/2001/XMLSchema-instance" xsi:noNamespaceSchemaLocation="http://sumo.dlr.de/xsd/net_file.xsd">

    <location netOffset="0.00,0.00" convBoundary="0.00,0.00,900.00,0.00" origBoundary="0.00,0.00,900.00,0.00" projParameter="!"/>

    <edge id=":B_0" function="internal">
        <lane id=":B_0_0" index="0" speed="13.89" length="0.10" shape="300.00,-4.80 300.00,-4.80"/>
        <lane id=":B_0_1" index="1" speed="13.89" length="0.10" shape="300.00,-1.60 300.00,-1.60"/>
    </edge>
    <edge id=":C_0" function="internal">
        <lane id=":C_0_0" index="0" speed="13.89" length="0.10" shape="600.00,-4.80 600.00,-4.80"/>
        <lane id=":C_0_1" index="1" speed="13.89" length="0.10" shape="600.00,-1.60 600.00,-1.60"/>
    </edge>

    <edge id="AB" from="A" to="B" priority="-1">
        <lane id="AB_0" index="0" speed="13.89" length="300.00" shape="0.00,-4.80 300.00,-4.80"/>
        <lane id="AB_1" index="1" speed="13.89" length="300.00" shape="0.00,-1.60 300.00,-1.60"/>
    </edge>
    <edge id="BC" from="B" to="C" priority="-1">
        <lane id="BC_0" index="0" speed="13.89" length="300.00" shape="300.00,-4.80 600.00,-4.80"/>
        <lane id="BC_1" index="1" speed="13.89" length="300.00" shape="300.00,-1.60 600.00,-1.60"/>
    </edge>
    <edge id="CD" from="C" to="D" priority="-1">
        <lane id="CD_0" index="0" speed="13.89" length="300.00" shape="600.00,-4.80 900.00,-4.80"/>
        <lane id="CD_1" index="1" speed="13.89" length="300.00" shape="600.00,-1.60 900.00,-1.60"/>
    </edge>

    <junction id="A" type="dead_end" x="0.00" y="0.00" incLanes="" intLanes="" shape="0.00,0.00 0.00,-6.40"/>
    <junction id="B" type="priority" x="300.00" y="0.00" incLanes="AB_0 AB_1" intLanes=":B_0_0 :B_0_1" shape="300.00,0.00 300.00,-6.40 300.00,0.00">
        <request index="0" response="00" foes="00" cont="0"/>
        <request index="1" response="00" foes="00" cont="0"/>
    </junction>
    <junction id="C" type="priority" x="600.00" y="0.00" incLanes="BC_0 BC_1" intLanes=":C_0_0 :C_0_1" shape="600.00,0.00 600.00,-6.40 600.00,0.00">
        <request index="0" response="00" foes="00" cont="0"/>
        <request index="1" response="00" foes="00" cont="0"/>
    </junction>
    <junction id="D" type="dead_end" x="900.00" y="0.00" incLanes="CD_0 CD_1" intLanes="" shape="900.00,-6.40 900.00,0.00"/>

    <connection from="AB" to="BC" fromLane="0" toLane="0" via=":B_0_0" dir="s" state="M"/>
    <connection from="AB" to="BC" fromLane="1" toLane="1" via=":B_0_1" dir="s" state="M"/>
    <connection from="BC" to="CD" fromLane="0" toLane="0" via=":C_0_0" dir="s" state="M"/>
    <connection from="BC" to="CD" fromLane="1" toLane="1" via=":C_0_1" dir="s" state="M"/>

    <connection from=":B_0" to="BC" fromLane="0" toLane="0" dir="s" state="M"/>
    <connection from=":B_0" to="BC" fromLane="1" toLane="1" dir="s" state="M"/>
    <connection from=":C_0" to="CD" fromLane="0" toLane="0" dir="s" state="M"/>
    <connection from=":C_0" to="CD" fromLane="1" toLane="1" dir="s" state="M"/>

</net>
