sumo_version=1.20.0
sumo_version_reported=Eclipse SUMO sumo Version 1.20.0
generated_utc=2026-07-18T12:32:15Z
command=sumo -c /home/user/SumoSharp/scenarios/67-multi-parking/config.sumocfg --fcd-output /home/user/SumoSharp/scenarios/67-multi-parking/golden.fcd.xml --fcd-output.acceleration --precision 6 --save-state.times 1 --save-state.files /home/user/SumoSharp/scenarios/67-multi-parking/golden.state.xml --no-step-log true
state_time=1
# input file hashes (sha256):
input=net.net.xml sha256=eeed7da7d588c1be53557d7c963aa71fea8c6d97493f9412ce8742af5b399847
input=rou.rou.xml sha256=ffcdd7ab87fcc958b7b959d1239a079c63e6911c964f4eae067c2cffc6fc3e8e
input=config.sumocfg sha256=0715164832e50a0dd488a12a86a1e61f0ed9b8ff9e47ddf12cae8174fd9fe43a
