<connections>
  <connection from="AB" to="BD" fromLane="0" toLane="0"/>
  <connection from="AB" to="BC" fromLane="1" toLane="1"/>
</connections>
