<edges>
  <edge id="AB" from="A" to="B" numLanes="2" speed="8.0"/>
  <edge id="BC" from="B" to="C" numLanes="2" speed="8.0"/>
  <edge id="BD" from="B" to="D" numLanes="1" speed="8.0"/>
</edges>
