<nodes>
  <node id="A" x="0"   y="0"   type="priority"/>
  <node id="B" x="150" y="0"   type="priority"/>
  <node id="C" x="214" y="0"   type="priority"/>
  <node id="D" x="150" y="-150" type="priority"/>
</nodes>
