<routes>
    <vType id="DEFAULT_VEHTYPE" vClass="passenger" sigma="0"/>
    <route id="ut" edges="A0A1 A1A0"/>
    <route id="foe" edges="A2A1 A1A0"/>
    <vehicle id="0" type="DEFAULT_VEHTYPE" route="ut" depart="0.00" departLane="0" departSpeed="0"/>
    <flow id="f" type="DEFAULT_VEHTYPE" route="foe" begin="0" end="120" period="6" departLane="0" departSpeed="13.89"/>
</routes>
