<?xml version="1.0" encoding="UTF-8"?>

<!-- generated on 2026-07-13 08:26:54 by Eclipse SUMO netconvert Version 1.18.0
<configuration xmlns:xsi="http://www.w3.org/2001/XMLSchema-instance" xsi:noNamespaceSchemaLocation="http://sumo.dlr.de/xsd/netconvertConfiguration.xsd">

    <input>
        <node-files value="/tmp/claude-0/-home-user-SUMO-NET/cf27b19c-aa17-5fcf-8623-6a70b352f1c1/scratchpad/jg/tee.nod.xml"/>
        <edge-files value="/tmp/claude-0/-home-user-SUMO-NET/cf27b19c-aa17-5fcf-8623-6a70b352f1c1/scratchpad/jg/tee.edg.xml"/>
    </input>

    <output>
        <output-file value="samples/junctions/tee/net.net.xml"/>
    </output>

    <processing>
        <offset.disable-normalization value="true"/>
    </processing>

    <junctions>
        <no-turnarounds value="true"/>
        <junctions.corner-detail value="8"/>
    </junctions>

</configuration>
-->

<net version="1.16" junctionCornerDetail="8" limitTurnSpeed="5.50" xmlns:xsi="http://www.w3.org/2001/XMLSchema-instance" xsi:noNamespaceSchemaLocation="http://sumo.dlr.de/xsd/net_file.xsd">

    <location netOffset="0.00,0.00" convBoundary="-120.00,-120.00,120.00,0.00" origBoundary="-120.00,-120.00,120.00,0.00" projParameter="!"/>

    <edge id=":C_0" function="internal">
        <lane id=":C_0_0" index="0" speed="13.90" length="20.80" shape="10.40,4.80 -10.40,4.80"/>
        <lane id=":C_0_1" index="1" speed="13.90" length="20.80" shape="10.40,1.60 -10.40,1.60"/>
    </edge>
    <edge id=":C_2" function="internal">
        <lane id=":C_2_0" index="0" speed="9.26" length="5.01" shape="10.40,1.60 5.44,0.89"/>
    </edge>
    <edge id=":C_8" function="internal">
        <lane id=":C_8_0" index="0" speed="9.26" length="14.34" shape="5.44,0.89 5.15,0.85 1.40,-1.40 -0.85,-5.15 -1.60,-10.40"/>
    </edge>
    <edge id=":C_3" function="internal">
        <lane id=":C_3_0" index="0" speed="6.51" length="9.03" shape="4.80,-10.40 5.15,-7.95 6.20,-6.20 7.95,-5.15 10.40,-4.80"/>
    </edge>
    <edge id=":C_4" function="internal">
        <lane id=":C_4_0" index="0" speed="9.26" length="19.35" shape="1.60,-10.40 0.85,-5.15 -1.40,-1.40 -5.15,0.85 -10.40,1.60"/>
    </edge>
    <edge id=":C_5" function="internal">
        <lane id=":C_5_0" index="0" speed="6.51" length="9.03" shape="-10.40,-4.80 -7.95,-5.15 -6.20,-6.20 -5.15,-7.95 -4.80,-10.40"/>
    </edge>
    <edge id=":C_6" function="internal">
        <lane id=":C_6_0" index="0" speed="13.90" length="20.80" shape="-10.40,-4.80 10.40,-4.80"/>
        <lane id=":C_6_1" index="1" speed="13.90" length="20.80" shape="-10.40,-1.60 10.40,-1.60"/>
    </edge>

    <edge id="CE" from="C" to="E" priority="-1">
        <lane id="CE_0" index="0" speed="13.90" length="109.60" shape="10.40,-4.80 120.00,-4.80"/>
        <lane id="CE_1" index="1" speed="13.90" length="109.60" shape="10.40,-1.60 120.00,-1.60"/>
    </edge>
    <edge id="CS" from="C" to="S" priority="-1">
        <lane id="CS_0" index="0" speed="13.90" length="109.60" shape="-4.80,-10.40 -4.80,-120.00"/>
        <lane id="CS_1" index="1" speed="13.90" length="109.60" shape="-1.60,-10.40 -1.60,-120.00"/>
    </edge>
    <edge id="CW" from="C" to="W" priority="-1">
        <lane id="CW_0" index="0" speed="13.90" length="109.60" shape="-10.40,4.80 -120.00,4.80"/>
        <lane id="CW_1" index="1" speed="13.90" length="109.60" shape="-10.40,1.60 -120.00,1.60"/>
    </edge>
    <edge id="EC" from="E" to="C" priority="-1">
        <lane id="EC_0" index="0" speed="13.90" length="109.60" shape="120.00,4.80 10.40,4.80"/>
        <lane id="EC_1" index="1" speed="13.90" length="109.60" shape="120.00,1.60 10.40,1.60"/>
    </edge>
    <edge id="SC" from="S" to="C" priority="-1">
        <lane id="SC_0" index="0" speed="13.90" length="109.60" shape="4.80,-120.00 4.80,-10.40"/>
        <lane id="SC_1" index="1" speed="13.90" length="109.60" shape="1.60,-120.00 1.60,-10.40"/>
    </edge>
    <edge id="WC" from="W" to="C" priority="-1">
        <lane id="WC_0" index="0" speed="13.90" length="109.60" shape="-120.00,-4.80 -10.40,-4.80"/>
        <lane id="WC_1" index="1" speed="13.90" length="109.60" shape="-120.00,-1.60 -10.40,-1.60"/>
    </edge>

    <junction id="C" type="priority" x="0.00" y="0.00" incLanes="EC_0 EC_1 SC_0 SC_1 WC_0 WC_1" intLanes=":C_0_0 :C_0_1 :C_8_0 :C_3_0 :C_4_0 :C_5_0 :C_6_0 :C_6_1" shape="10.40,6.40 10.40,-6.40 8.82,-6.60 8.18,-6.84 7.63,-7.19 7.19,-7.63 6.84,-8.18 6.60,-8.82 6.45,-9.56 6.40,-10.40 -6.40,-10.40 -6.60,-8.82 -6.84,-8.18 -7.19,-7.63 -7.63,-7.19 -8.18,-6.84 -8.82,-6.60 -9.56,-6.45 -10.40,-6.40 -10.40,6.40">
        <request index="0" response="00000000" foes="00010000" cont="0"/>
        <request index="1" response="00000000" foes="00010000" cont="0"/>
        <request index="2" response="11000000" foes="11010000" cont="1"/>
        <request index="3" response="11000000" foes="11000000" cont="0"/>
        <request index="4" response="11000111" foes="11000111" cont="0"/>
        <request index="5" response="00000000" foes="00000000" cont="0"/>
        <request index="6" response="00000000" foes="00011100" cont="0"/>
        <request index="7" response="00000000" foes="00011100" cont="0"/>
    </junction>
    <junction id="E" type="dead_end" x="120.00" y="0.00" incLanes="CE_0 CE_1" intLanes="" shape="120.00,0.00 120.00,-6.40 120.00,0.00"/>
    <junction id="S" type="dead_end" x="0.00" y="-120.00" incLanes="CS_0 CS_1" intLanes="" shape="0.00,-120.00 -6.40,-120.00 0.00,-120.00"/>
    <junction id="W" type="dead_end" x="-120.00" y="0.00" incLanes="CW_0 CW_1" intLanes="" shape="-120.00,0.00 -120.00,6.40 -120.00,0.00"/>

    <junction id=":C_8_0" type="internal" x="5.44" y="0.89" incLanes=":C_2_0 WC_0 WC_1" intLanes=":C_4_0 :C_6_0 :C_6_1"/>

    <connection from="EC" to="CW" fromLane="0" toLane="0" via=":C_0_0" dir="s" state="M"/>
    <connection from="EC" to="CW" fromLane="1" toLane="1" via=":C_0_1" dir="s" state="M"/>
    <connection from="EC" to="CS" fromLane="1" toLane="1" via=":C_2_0" dir="l" state="m"/>
    <connection from="SC" to="CE" fromLane="0" toLane="0" via=":C_3_0" dir="r" state="m"/>
    <connection from="SC" to="CW" fromLane="1" toLane="1" via=":C_4_0" dir="l" state="m"/>
    <connection from="WC" to="CS" fromLane="0" toLane="0" via=":C_5_0" dir="r" state="M"/>
    <connection from="WC" to="CE" fromLane="0" toLane="0" via=":C_6_0" dir="s" state="M"/>
    <connection from="WC" to="CE" fromLane="1" toLane="1" via=":C_6_1" dir="s" state="M"/>

    <connection from=":C_0" to="CW" fromLane="0" toLane="0" dir="s" state="M"/>
    <connection from=":C_0" to="CW" fromLane="1" toLane="1" dir="s" state="M"/>
    <connection from=":C_2" to="CS" fromLane="0" toLane="1" via=":C_8_0" dir="l" state="m"/>
    <connection from=":C_8" to="CS" fromLane="0" toLane="1" dir="l" state="M"/>
    <connection from=":C_3" to="CE" fromLane="0" toLane="0" dir="r" state="M"/>
    <connection from=":C_4" to="CW" fromLane="0" toLane="1" dir="l" state="M"/>
    <connection from=":C_5" to="CS" fromLane="0" toLane="0" dir="r" state="M"/>
    <connection from=":C_6" to="CE" fromLane="0" toLane="0" dir="s" state="M"/>
    <connection from=":C_6" to="CE" fromLane="1" toLane="1" dir="s" state="M"/>

</net>
