<?xml version="1.0" encoding="UTF-8"?>
<edges xmlns:xsi="http://www.w3.org/2001/XMLSchema-instance" xsi:noNamespaceSchemaLocation="http://sumo.dlr.de/xsd/edges_file.xsd">
    <!-- one wide (4.8 m) lane so a passenger (width 1.8) has room to drift laterally. -->
    <edge id="e0" from="n0" to="n1" numLanes="1" speed="13.89" priority="-1" width="4.8"/>
</edges>
