<connections>
    <connection from="E1" to="E2" fromLane="1" toLane="0"/>
</connections>
