<nodes>
    <node id="A" x="0.00"    y="0.00" type="priority"/>
    <node id="B" x="500.00"  y="0.00" type="priority"/>
    <node id="C" x="1000.00" y="0.00" type="dead_end"/>
</nodes>
